*SPEF "ieee 1481-1999"
*DESIGN "control_system"
*DATE "11:11:11 Fri 11 11, 1111"
*VENDOR "OpenRCX"
*PROGRAM "Parallel Extraction"
*VERSION "1.0"
*DESIGN_FLOW "NAME_SCOPE LOCAL" "PIN_CAP NONE"
*DIVIDER /
*DELIMITER :
*BUS_DELIMITER []
*T_UNIT 1 NS
*C_UNIT 1 PF
*R_UNIT 1 OHM
*L_UNIT 1 HENRY

*NAME_MAP
*1 clk
*2 clk_s
*3 dir
*4 enable
*5 net44
*6 net16
*7 net17
*8 net18
*9 net19
*10 net20
*11 net21
*12 net22
*13 net23
*14 net24
*15 net25
*16 net45
*17 net26
*18 net27
*19 net28
*20 net29
*21 net30
*22 net31
*23 net32
*24 net33
*25 net34
*26 net35
*27 net46
*28 net36
*29 net37
*30 net38
*31 net39
*32 net40
*33 net41
*34 net42
*35 net43
*36 net47
*37 net48
*38 net49
*39 net50
*40 net13
*41 net14
*42 net15
*43 rst
*44 salida[0]
*45 salida[1]
*46 salida[2]
*47 salida[3]
*50 _000_
*51 _001_
*52 _002_
*53 _003_
*54 _004_
*55 _005_
*56 _006_
*57 _007_
*58 _008_
*59 _009_
*60 _010_
*61 _011_
*62 _012_
*63 _013_
*64 _014_
*65 _015_
*66 _016_
*67 _017_
*68 _018_
*69 _019_
*70 _020_
*71 _021_
*72 _022_
*73 _023_
*74 _024_
*75 _025_
*76 _026_
*77 _027_
*78 _028_
*79 _029_
*80 _030_
*81 _031_
*82 _032_
*83 _033_
*84 _034_
*85 _035_
*86 _036_
*87 _037_
*88 _038_
*89 _039_
*90 _040_
*91 _041_
*92 _042_
*93 _043_
*94 _044_
*95 _045_
*96 _046_
*97 _047_
*98 _048_
*99 _049_
*100 _050_
*101 _051_
*102 _052_
*103 _053_
*104 _054_
*105 _055_
*106 _056_
*107 _057_
*108 _058_
*109 _059_
*110 _060_
*111 _061_
*112 _062_
*113 _063_
*114 _064_
*115 _065_
*116 _066_
*117 _067_
*118 _068_
*119 _069_
*120 _070_
*121 _071_
*122 _072_
*123 _073_
*124 _074_
*125 _075_
*126 _076_
*127 _077_
*128 _078_
*129 _079_
*130 _080_
*131 _081_
*132 _082_
*133 _083_
*134 _084_
*135 _085_
*136 _086_
*137 _087_
*138 _088_
*139 _089_
*140 _090_
*141 _091_
*142 _092_
*143 _093_
*144 _094_
*145 _095_
*146 _096_
*147 _097_
*148 _098_
*149 _099_
*150 _100_
*151 _101_
*152 _102_
*153 _103_
*154 _104_
*155 _105_
*156 _106_
*157 _107_
*158 _108_
*159 _109_
*160 _110_
*161 _111_
*162 _112_
*163 _113_
*164 _114_
*165 _115_
*166 _116_
*167 _117_
*168 _118_
*169 _119_
*170 _120_
*171 _121_
*172 _122_
*173 _123_
*174 _124_
*175 _125_
*176 _126_
*177 _127_
*178 _128_
*179 _129_
*180 _130_
*181 _131_
*182 _132_
*183 _133_
*184 _134_
*185 _135_
*186 _136_
*187 _137_
*188 _138_
*189 _139_
*190 _140_
*191 _141_
*192 _142_
*193 _143_
*194 _144_
*195 _145_
*196 _146_
*197 _147_
*198 _148_
*199 _149_
*200 _150_
*201 _151_
*202 _152_
*203 _153_
*204 clknet_0_clk
*205 clknet_2_0__leaf_clk
*206 clknet_2_1__leaf_clk
*207 clknet_2_2__leaf_clk
*208 clknet_2_3__leaf_clk
*209 count\[0\]
*210 count\[10\]
*211 count\[11\]
*212 count\[12\]
*213 count\[13\]
*214 count\[14\]
*215 count\[15\]
*216 count\[16\]
*217 count\[17\]
*218 count\[18\]
*219 count\[19\]
*220 count\[1\]
*221 count\[20\]
*222 count\[21\]
*223 count\[22\]
*224 count\[23\]
*225 count\[24\]
*226 count\[25\]
*227 count\[26\]
*228 count\[2\]
*229 count\[3\]
*230 count\[4\]
*231 count\[5\]
*232 count\[6\]
*233 count\[7\]
*234 count\[8\]
*235 count\[9\]
*236 net1
*237 net10
*238 net11
*239 net12
*240 net2
*241 net3
*242 net4
*243 net5
*244 net6
*245 net7
*246 net8
*247 net9
*248 state\[0\]
*249 state\[1\]
*250 state\[2\]
*251 state_next\[0\]
*252 state_next\[1\]
*253 state_next\[2\]
*254 ANTENNA__170__A1
*255 ANTENNA__272__A1
*256 ANTENNA__275__A1
*257 ANTENNA__278__A1
*258 ANTENNA__280__I
*259 ANTENNA__283__A1
*260 ANTENNA__287__I
*261 ANTENNA__289__A1
*262 ANTENNA__289__A2
*263 ANTENNA__291__A1
*264 ANTENNA__292__I
*265 ANTENNA__297__A2
*266 ANTENNA__301__I
*267 ANTENNA_clkbuf_0_clk_I
*268 ANTENNA_fanout11_I
*269 ANTENNA_input1_I
*270 ANTENNA_input2_I
*271 ANTENNA_input3_I
*272 ANTENNA_output4_I
*273 ANTENNA_output5_I
*274 ANTENNA_output6_I
*275 ANTENNA_output7_I
*276 ANTENNA_output8_I
*277 FILLER_0_0_104
*278 FILLER_0_0_138
*279 FILLER_0_0_172
*280 FILLER_0_0_2
*281 FILLER_0_0_206
*282 FILLER_0_0_240
*283 FILLER_0_0_274
*284 FILLER_0_0_290
*285 FILLER_0_0_298
*286 FILLER_0_0_300
*287 FILLER_0_0_305
*288 FILLER_0_0_308
*289 FILLER_0_0_324
*290 FILLER_0_0_328
*291 FILLER_0_0_330
*292 FILLER_0_0_335
*293 FILLER_0_0_339
*294 FILLER_0_0_342
*295 FILLER_0_0_36
*296 FILLER_0_0_376
*297 FILLER_0_0_410
*298 FILLER_0_0_418
*299 FILLER_0_0_420
*300 FILLER_0_0_425
*301 FILLER_0_0_437
*302 FILLER_0_0_441
*303 FILLER_0_0_444
*304 FILLER_0_0_478
*305 FILLER_0_0_512
*306 FILLER_0_0_516
*307 FILLER_0_0_521
*308 FILLER_0_0_537
*309 FILLER_0_0_541
*310 FILLER_0_0_543
*311 FILLER_0_0_546
*312 FILLER_0_0_551
*313 FILLER_0_0_557
*314 FILLER_0_0_573
*315 FILLER_0_0_577
*316 FILLER_0_0_580
*317 FILLER_0_0_588
*318 FILLER_0_0_593
*319 FILLER_0_0_609
*320 FILLER_0_0_611
*321 FILLER_0_0_614
*322 FILLER_0_0_648
*323 FILLER_0_0_682
*324 FILLER_0_0_686
*325 FILLER_0_0_70
*326 FILLER_0_10_101
*327 FILLER_0_10_107
*328 FILLER_0_10_171
*329 FILLER_0_10_177
*330 FILLER_0_10_2
*331 FILLER_0_10_241
*332 FILLER_0_10_247
*333 FILLER_0_10_311
*334 FILLER_0_10_317
*335 FILLER_0_10_34
*336 FILLER_0_10_37
*337 FILLER_0_10_381
*338 FILLER_0_10_387
*339 FILLER_0_10_451
*340 FILLER_0_10_457
*341 FILLER_0_10_521
*342 FILLER_0_10_527
*343 FILLER_0_10_591
*344 FILLER_0_10_597
*345 FILLER_0_10_661
*346 FILLER_0_10_667
*347 FILLER_0_10_683
*348 FILLER_0_10_687
*349 FILLER_0_11_136
*350 FILLER_0_11_142
*351 FILLER_0_11_2
*352 FILLER_0_11_206
*353 FILLER_0_11_212
*354 FILLER_0_11_276
*355 FILLER_0_11_282
*356 FILLER_0_11_346
*357 FILLER_0_11_352
*358 FILLER_0_11_416
*359 FILLER_0_11_422
*360 FILLER_0_11_486
*361 FILLER_0_11_492
*362 FILLER_0_11_556
*363 FILLER_0_11_562
*364 FILLER_0_11_626
*365 FILLER_0_11_632
*366 FILLER_0_11_66
*367 FILLER_0_11_664
*368 FILLER_0_11_680
*369 FILLER_0_11_72
*370 FILLER_0_12_101
*371 FILLER_0_12_107
*372 FILLER_0_12_171
*373 FILLER_0_12_177
*374 FILLER_0_12_2
*375 FILLER_0_12_241
*376 FILLER_0_12_247
*377 FILLER_0_12_311
*378 FILLER_0_12_317
*379 FILLER_0_12_34
*380 FILLER_0_12_37
*381 FILLER_0_12_381
*382 FILLER_0_12_387
*383 FILLER_0_12_451
*384 FILLER_0_12_457
*385 FILLER_0_12_521
*386 FILLER_0_12_527
*387 FILLER_0_12_591
*388 FILLER_0_12_597
*389 FILLER_0_12_661
*390 FILLER_0_12_667
*391 FILLER_0_12_683
*392 FILLER_0_12_687
*393 FILLER_0_13_136
*394 FILLER_0_13_142
*395 FILLER_0_13_2
*396 FILLER_0_13_206
*397 FILLER_0_13_212
*398 FILLER_0_13_276
*399 FILLER_0_13_282
*400 FILLER_0_13_346
*401 FILLER_0_13_352
*402 FILLER_0_13_416
*403 FILLER_0_13_422
*404 FILLER_0_13_486
*405 FILLER_0_13_492
*406 FILLER_0_13_556
*407 FILLER_0_13_562
*408 FILLER_0_13_626
*409 FILLER_0_13_632
*410 FILLER_0_13_66
*411 FILLER_0_13_664
*412 FILLER_0_13_680
*413 FILLER_0_13_72
*414 FILLER_0_14_101
*415 FILLER_0_14_107
*416 FILLER_0_14_171
*417 FILLER_0_14_177
*418 FILLER_0_14_2
*419 FILLER_0_14_241
*420 FILLER_0_14_247
*421 FILLER_0_14_311
*422 FILLER_0_14_317
*423 FILLER_0_14_34
*424 FILLER_0_14_37
*425 FILLER_0_14_381
*426 FILLER_0_14_387
*427 FILLER_0_14_451
*428 FILLER_0_14_457
*429 FILLER_0_14_521
*430 FILLER_0_14_527
*431 FILLER_0_14_591
*432 FILLER_0_14_597
*433 FILLER_0_14_661
*434 FILLER_0_14_667
*435 FILLER_0_14_683
*436 FILLER_0_14_687
*437 FILLER_0_15_136
*438 FILLER_0_15_142
*439 FILLER_0_15_2
*440 FILLER_0_15_206
*441 FILLER_0_15_212
*442 FILLER_0_15_276
*443 FILLER_0_15_282
*444 FILLER_0_15_346
*445 FILLER_0_15_352
*446 FILLER_0_15_416
*447 FILLER_0_15_422
*448 FILLER_0_15_486
*449 FILLER_0_15_492
*450 FILLER_0_15_556
*451 FILLER_0_15_562
*452 FILLER_0_15_626
*453 FILLER_0_15_632
*454 FILLER_0_15_66
*455 FILLER_0_15_664
*456 FILLER_0_15_680
*457 FILLER_0_15_72
*458 FILLER_0_16_101
*459 FILLER_0_16_107
*460 FILLER_0_16_171
*461 FILLER_0_16_177
*462 FILLER_0_16_2
*463 FILLER_0_16_241
*464 FILLER_0_16_247
*465 FILLER_0_16_311
*466 FILLER_0_16_317
*467 FILLER_0_16_34
*468 FILLER_0_16_37
*469 FILLER_0_16_381
*470 FILLER_0_16_387
*471 FILLER_0_16_451
*472 FILLER_0_16_457
*473 FILLER_0_16_521
*474 FILLER_0_16_527
*475 FILLER_0_16_591
*476 FILLER_0_16_597
*477 FILLER_0_16_661
*478 FILLER_0_16_667
*479 FILLER_0_16_683
*480 FILLER_0_17_136
*481 FILLER_0_17_142
*482 FILLER_0_17_2
*483 FILLER_0_17_206
*484 FILLER_0_17_212
*485 FILLER_0_17_276
*486 FILLER_0_17_282
*487 FILLER_0_17_346
*488 FILLER_0_17_352
*489 FILLER_0_17_416
*490 FILLER_0_17_422
*491 FILLER_0_17_486
*492 FILLER_0_17_492
*493 FILLER_0_17_556
*494 FILLER_0_17_562
*495 FILLER_0_17_626
*496 FILLER_0_17_632
*497 FILLER_0_17_66
*498 FILLER_0_17_664
*499 FILLER_0_17_680
*500 FILLER_0_17_72
*501 FILLER_0_18_101
*502 FILLER_0_18_107
*503 FILLER_0_18_171
*504 FILLER_0_18_177
*505 FILLER_0_18_2
*506 FILLER_0_18_241
*507 FILLER_0_18_247
*508 FILLER_0_18_311
*509 FILLER_0_18_317
*510 FILLER_0_18_34
*511 FILLER_0_18_37
*512 FILLER_0_18_381
*513 FILLER_0_18_387
*514 FILLER_0_18_451
*515 FILLER_0_18_457
*516 FILLER_0_18_521
*517 FILLER_0_18_527
*518 FILLER_0_18_591
*519 FILLER_0_18_597
*520 FILLER_0_18_661
*521 FILLER_0_18_667
*522 FILLER_0_18_683
*523 FILLER_0_19_136
*524 FILLER_0_19_142
*525 FILLER_0_19_2
*526 FILLER_0_19_206
*527 FILLER_0_19_212
*528 FILLER_0_19_276
*529 FILLER_0_19_282
*530 FILLER_0_19_346
*531 FILLER_0_19_352
*532 FILLER_0_19_416
*533 FILLER_0_19_422
*534 FILLER_0_19_486
*535 FILLER_0_19_492
*536 FILLER_0_19_556
*537 FILLER_0_19_562
*538 FILLER_0_19_626
*539 FILLER_0_19_632
*540 FILLER_0_19_66
*541 FILLER_0_19_664
*542 FILLER_0_19_680
*543 FILLER_0_19_72
*544 FILLER_0_1_136
*545 FILLER_0_1_142
*546 FILLER_0_1_2
*547 FILLER_0_1_206
*548 FILLER_0_1_212
*549 FILLER_0_1_276
*550 FILLER_0_1_282
*551 FILLER_0_1_346
*552 FILLER_0_1_352
*553 FILLER_0_1_416
*554 FILLER_0_1_422
*555 FILLER_0_1_486
*556 FILLER_0_1_492
*557 FILLER_0_1_556
*558 FILLER_0_1_562
*559 FILLER_0_1_626
*560 FILLER_0_1_632
*561 FILLER_0_1_66
*562 FILLER_0_1_664
*563 FILLER_0_1_680
*564 FILLER_0_1_72
*565 FILLER_0_20_101
*566 FILLER_0_20_107
*567 FILLER_0_20_171
*568 FILLER_0_20_177
*569 FILLER_0_20_2
*570 FILLER_0_20_241
*571 FILLER_0_20_247
*572 FILLER_0_20_311
*573 FILLER_0_20_317
*574 FILLER_0_20_34
*575 FILLER_0_20_37
*576 FILLER_0_20_381
*577 FILLER_0_20_387
*578 FILLER_0_20_451
*579 FILLER_0_20_457
*580 FILLER_0_20_521
*581 FILLER_0_20_527
*582 FILLER_0_20_591
*583 FILLER_0_20_597
*584 FILLER_0_20_661
*585 FILLER_0_20_667
*586 FILLER_0_20_683
*587 FILLER_0_21_136
*588 FILLER_0_21_142
*589 FILLER_0_21_2
*590 FILLER_0_21_206
*591 FILLER_0_21_212
*592 FILLER_0_21_276
*593 FILLER_0_21_282
*594 FILLER_0_21_346
*595 FILLER_0_21_352
*596 FILLER_0_21_416
*597 FILLER_0_21_422
*598 FILLER_0_21_486
*599 FILLER_0_21_492
*600 FILLER_0_21_556
*601 FILLER_0_21_562
*602 FILLER_0_21_626
*603 FILLER_0_21_632
*604 FILLER_0_21_66
*605 FILLER_0_21_664
*606 FILLER_0_21_680
*607 FILLER_0_21_72
*608 FILLER_0_22_101
*609 FILLER_0_22_107
*610 FILLER_0_22_171
*611 FILLER_0_22_177
*612 FILLER_0_22_2
*613 FILLER_0_22_241
*614 FILLER_0_22_247
*615 FILLER_0_22_311
*616 FILLER_0_22_317
*617 FILLER_0_22_34
*618 FILLER_0_22_37
*619 FILLER_0_22_381
*620 FILLER_0_22_387
*621 FILLER_0_22_451
*622 FILLER_0_22_457
*623 FILLER_0_22_521
*624 FILLER_0_22_527
*625 FILLER_0_22_591
*626 FILLER_0_22_597
*627 FILLER_0_22_661
*628 FILLER_0_22_667
*629 FILLER_0_22_683
*630 FILLER_0_22_687
*631 FILLER_0_23_136
*632 FILLER_0_23_142
*633 FILLER_0_23_2
*634 FILLER_0_23_206
*635 FILLER_0_23_212
*636 FILLER_0_23_276
*637 FILLER_0_23_282
*638 FILLER_0_23_346
*639 FILLER_0_23_352
*640 FILLER_0_23_416
*641 FILLER_0_23_422
*642 FILLER_0_23_486
*643 FILLER_0_23_492
*644 FILLER_0_23_556
*645 FILLER_0_23_562
*646 FILLER_0_23_626
*647 FILLER_0_23_632
*648 FILLER_0_23_66
*649 FILLER_0_23_664
*650 FILLER_0_23_680
*651 FILLER_0_23_72
*652 FILLER_0_24_101
*653 FILLER_0_24_107
*654 FILLER_0_24_171
*655 FILLER_0_24_177
*656 FILLER_0_24_2
*657 FILLER_0_24_241
*658 FILLER_0_24_247
*659 FILLER_0_24_311
*660 FILLER_0_24_317
*661 FILLER_0_24_34
*662 FILLER_0_24_37
*663 FILLER_0_24_381
*664 FILLER_0_24_387
*665 FILLER_0_24_451
*666 FILLER_0_24_457
*667 FILLER_0_24_521
*668 FILLER_0_24_527
*669 FILLER_0_24_591
*670 FILLER_0_24_597
*671 FILLER_0_24_661
*672 FILLER_0_24_667
*673 FILLER_0_24_683
*674 FILLER_0_24_687
*675 FILLER_0_25_136
*676 FILLER_0_25_142
*677 FILLER_0_25_2
*678 FILLER_0_25_206
*679 FILLER_0_25_212
*680 FILLER_0_25_276
*681 FILLER_0_25_282
*682 FILLER_0_25_346
*683 FILLER_0_25_352
*684 FILLER_0_25_416
*685 FILLER_0_25_422
*686 FILLER_0_25_486
*687 FILLER_0_25_492
*688 FILLER_0_25_556
*689 FILLER_0_25_562
*690 FILLER_0_25_626
*691 FILLER_0_25_632
*692 FILLER_0_25_66
*693 FILLER_0_25_664
*694 FILLER_0_25_680
*695 FILLER_0_25_72
*696 FILLER_0_26_101
*697 FILLER_0_26_107
*698 FILLER_0_26_171
*699 FILLER_0_26_177
*700 FILLER_0_26_2
*701 FILLER_0_26_241
*702 FILLER_0_26_247
*703 FILLER_0_26_311
*704 FILLER_0_26_317
*705 FILLER_0_26_34
*706 FILLER_0_26_37
*707 FILLER_0_26_381
*708 FILLER_0_26_387
*709 FILLER_0_26_451
*710 FILLER_0_26_457
*711 FILLER_0_26_521
*712 FILLER_0_26_527
*713 FILLER_0_26_591
*714 FILLER_0_26_597
*715 FILLER_0_26_661
*716 FILLER_0_26_667
*717 FILLER_0_26_683
*718 FILLER_0_26_687
*719 FILLER_0_27_136
*720 FILLER_0_27_142
*721 FILLER_0_27_2
*722 FILLER_0_27_206
*723 FILLER_0_27_212
*724 FILLER_0_27_276
*725 FILLER_0_27_282
*726 FILLER_0_27_346
*727 FILLER_0_27_352
*728 FILLER_0_27_416
*729 FILLER_0_27_422
*730 FILLER_0_27_486
*731 FILLER_0_27_492
*732 FILLER_0_27_556
*733 FILLER_0_27_562
*734 FILLER_0_27_626
*735 FILLER_0_27_632
*736 FILLER_0_27_66
*737 FILLER_0_27_664
*738 FILLER_0_27_680
*739 FILLER_0_27_72
*740 FILLER_0_28_101
*741 FILLER_0_28_107
*742 FILLER_0_28_171
*743 FILLER_0_28_177
*744 FILLER_0_28_2
*745 FILLER_0_28_241
*746 FILLER_0_28_247
*747 FILLER_0_28_311
*748 FILLER_0_28_317
*749 FILLER_0_28_34
*750 FILLER_0_28_37
*751 FILLER_0_28_381
*752 FILLER_0_28_387
*753 FILLER_0_28_451
*754 FILLER_0_28_457
*755 FILLER_0_28_521
*756 FILLER_0_28_527
*757 FILLER_0_28_591
*758 FILLER_0_28_597
*759 FILLER_0_28_661
*760 FILLER_0_28_667
*761 FILLER_0_28_683
*762 FILLER_0_28_687
*763 FILLER_0_29_136
*764 FILLER_0_29_142
*765 FILLER_0_29_2
*766 FILLER_0_29_206
*767 FILLER_0_29_212
*768 FILLER_0_29_276
*769 FILLER_0_29_282
*770 FILLER_0_29_346
*771 FILLER_0_29_352
*772 FILLER_0_29_416
*773 FILLER_0_29_422
*774 FILLER_0_29_486
*775 FILLER_0_29_492
*776 FILLER_0_29_556
*777 FILLER_0_29_562
*778 FILLER_0_29_626
*779 FILLER_0_29_632
*780 FILLER_0_29_66
*781 FILLER_0_29_664
*782 FILLER_0_29_680
*783 FILLER_0_29_72
*784 FILLER_0_2_101
*785 FILLER_0_2_107
*786 FILLER_0_2_171
*787 FILLER_0_2_177
*788 FILLER_0_2_2
*789 FILLER_0_2_241
*790 FILLER_0_2_247
*791 FILLER_0_2_311
*792 FILLER_0_2_317
*793 FILLER_0_2_34
*794 FILLER_0_2_37
*795 FILLER_0_2_381
*796 FILLER_0_2_387
*797 FILLER_0_2_451
*798 FILLER_0_2_457
*799 FILLER_0_2_521
*800 FILLER_0_2_527
*801 FILLER_0_2_591
*802 FILLER_0_2_597
*803 FILLER_0_2_661
*804 FILLER_0_2_667
*805 FILLER_0_2_683
*806 FILLER_0_2_687
*807 FILLER_0_30_101
*808 FILLER_0_30_107
*809 FILLER_0_30_171
*810 FILLER_0_30_177
*811 FILLER_0_30_2
*812 FILLER_0_30_241
*813 FILLER_0_30_247
*814 FILLER_0_30_311
*815 FILLER_0_30_323
*816 FILLER_0_30_34
*817 FILLER_0_30_355
*818 FILLER_0_30_37
*819 FILLER_0_30_371
*820 FILLER_0_30_379
*821 FILLER_0_30_383
*822 FILLER_0_30_387
*823 FILLER_0_30_451
*824 FILLER_0_30_457
*825 FILLER_0_30_521
*826 FILLER_0_30_527
*827 FILLER_0_30_591
*828 FILLER_0_30_597
*829 FILLER_0_30_661
*830 FILLER_0_30_667
*831 FILLER_0_30_683
*832 FILLER_0_31_136
*833 FILLER_0_31_142
*834 FILLER_0_31_2
*835 FILLER_0_31_206
*836 FILLER_0_31_212
*837 FILLER_0_31_244
*838 FILLER_0_31_260
*839 FILLER_0_31_264
*840 FILLER_0_31_266
*841 FILLER_0_31_282
*842 FILLER_0_31_319
*843 FILLER_0_31_356
*844 FILLER_0_31_422
*845 FILLER_0_31_486
*846 FILLER_0_31_492
*847 FILLER_0_31_556
*848 FILLER_0_31_562
*849 FILLER_0_31_626
*850 FILLER_0_31_632
*851 FILLER_0_31_66
*852 FILLER_0_31_664
*853 FILLER_0_31_680
*854 FILLER_0_31_72
*855 FILLER_0_32_101
*856 FILLER_0_32_107
*857 FILLER_0_32_171
*858 FILLER_0_32_177
*859 FILLER_0_32_2
*860 FILLER_0_32_241
*861 FILLER_0_32_247
*862 FILLER_0_32_313
*863 FILLER_0_32_317
*864 FILLER_0_32_321
*865 FILLER_0_32_34
*866 FILLER_0_32_364
*867 FILLER_0_32_37
*868 FILLER_0_32_380
*869 FILLER_0_32_384
*870 FILLER_0_32_387
*871 FILLER_0_32_451
*872 FILLER_0_32_457
*873 FILLER_0_32_521
*874 FILLER_0_32_527
*875 FILLER_0_32_591
*876 FILLER_0_32_597
*877 FILLER_0_32_661
*878 FILLER_0_32_667
*879 FILLER_0_32_683
*880 FILLER_0_33_136
*881 FILLER_0_33_142
*882 FILLER_0_33_2
*883 FILLER_0_33_206
*884 FILLER_0_33_212
*885 FILLER_0_33_244
*886 FILLER_0_33_260
*887 FILLER_0_33_264
*888 FILLER_0_33_272
*889 FILLER_0_33_282
*890 FILLER_0_33_284
*891 FILLER_0_33_293
*892 FILLER_0_33_297
*893 FILLER_0_33_299
*894 FILLER_0_33_308
*895 FILLER_0_33_321
*896 FILLER_0_33_323
*897 FILLER_0_33_336
*898 FILLER_0_33_347
*899 FILLER_0_33_349
*900 FILLER_0_33_352
*901 FILLER_0_33_416
*902 FILLER_0_33_422
*903 FILLER_0_33_486
*904 FILLER_0_33_492
*905 FILLER_0_33_556
*906 FILLER_0_33_562
*907 FILLER_0_33_626
*908 FILLER_0_33_632
*909 FILLER_0_33_66
*910 FILLER_0_33_664
*911 FILLER_0_33_680
*912 FILLER_0_33_72
*913 FILLER_0_34_101
*914 FILLER_0_34_107
*915 FILLER_0_34_171
*916 FILLER_0_34_177
*917 FILLER_0_34_2
*918 FILLER_0_34_241
*919 FILLER_0_34_247
*920 FILLER_0_34_279
*921 FILLER_0_34_295
*922 FILLER_0_34_303
*923 FILLER_0_34_307
*924 FILLER_0_34_313
*925 FILLER_0_34_317
*926 FILLER_0_34_321
*927 FILLER_0_34_323
*928 FILLER_0_34_336
*929 FILLER_0_34_338
*930 FILLER_0_34_34
*931 FILLER_0_34_355
*932 FILLER_0_34_359
*933 FILLER_0_34_369
*934 FILLER_0_34_37
*935 FILLER_0_34_387
*936 FILLER_0_34_451
*937 FILLER_0_34_457
*938 FILLER_0_34_521
*939 FILLER_0_34_527
*940 FILLER_0_34_591
*941 FILLER_0_34_597
*942 FILLER_0_34_661
*943 FILLER_0_34_667
*944 FILLER_0_34_683
*945 FILLER_0_35_136
*946 FILLER_0_35_142
*947 FILLER_0_35_2
*948 FILLER_0_35_206
*949 FILLER_0_35_212
*950 FILLER_0_35_228
*951 FILLER_0_35_236
*952 FILLER_0_35_266
*953 FILLER_0_35_270
*954 FILLER_0_35_296
*955 FILLER_0_35_304
*956 FILLER_0_35_343
*957 FILLER_0_35_347
*958 FILLER_0_35_349
*959 FILLER_0_35_352
*960 FILLER_0_35_356
*961 FILLER_0_35_387
*962 FILLER_0_35_419
*963 FILLER_0_35_422
*964 FILLER_0_35_486
*965 FILLER_0_35_492
*966 FILLER_0_35_556
*967 FILLER_0_35_562
*968 FILLER_0_35_626
*969 FILLER_0_35_632
*970 FILLER_0_35_66
*971 FILLER_0_35_664
*972 FILLER_0_35_680
*973 FILLER_0_35_72
*974 FILLER_0_36_101
*975 FILLER_0_36_107
*976 FILLER_0_36_171
*977 FILLER_0_36_177
*978 FILLER_0_36_2
*979 FILLER_0_36_241
*980 FILLER_0_36_247
*981 FILLER_0_36_255
*982 FILLER_0_36_257
*983 FILLER_0_36_264
*984 FILLER_0_36_297
*985 FILLER_0_36_313
*986 FILLER_0_36_339
*987 FILLER_0_36_34
*988 FILLER_0_36_37
*989 FILLER_0_36_380
*990 FILLER_0_36_384
*991 FILLER_0_36_395
*992 FILLER_0_36_427
*993 FILLER_0_36_443
*994 FILLER_0_36_451
*995 FILLER_0_36_457
*996 FILLER_0_36_521
*997 FILLER_0_36_527
*998 FILLER_0_36_591
*999 FILLER_0_36_597
*1000 FILLER_0_36_661
*1001 FILLER_0_36_667
*1002 FILLER_0_36_683
*1003 FILLER_0_36_687
*1004 FILLER_0_37_136
*1005 FILLER_0_37_142
*1006 FILLER_0_37_2
*1007 FILLER_0_37_206
*1008 FILLER_0_37_212
*1009 FILLER_0_37_244
*1010 FILLER_0_37_252
*1011 FILLER_0_37_269
*1012 FILLER_0_37_271
*1013 FILLER_0_37_332
*1014 FILLER_0_37_340
*1015 FILLER_0_37_352
*1016 FILLER_0_37_385
*1017 FILLER_0_37_417
*1018 FILLER_0_37_419
*1019 FILLER_0_37_422
*1020 FILLER_0_37_486
*1021 FILLER_0_37_492
*1022 FILLER_0_37_556
*1023 FILLER_0_37_562
*1024 FILLER_0_37_626
*1025 FILLER_0_37_632
*1026 FILLER_0_37_66
*1027 FILLER_0_37_664
*1028 FILLER_0_37_680
*1029 FILLER_0_37_72
*1030 FILLER_0_38_101
*1031 FILLER_0_38_107
*1032 FILLER_0_38_171
*1033 FILLER_0_38_177
*1034 FILLER_0_38_2
*1035 FILLER_0_38_241
*1036 FILLER_0_38_247
*1037 FILLER_0_38_263
*1038 FILLER_0_38_265
*1039 FILLER_0_38_285
*1040 FILLER_0_38_289
*1041 FILLER_0_38_314
*1042 FILLER_0_38_317
*1043 FILLER_0_38_34
*1044 FILLER_0_38_37
*1045 FILLER_0_38_383
*1046 FILLER_0_38_387
*1047 FILLER_0_38_451
*1048 FILLER_0_38_457
*1049 FILLER_0_38_521
*1050 FILLER_0_38_527
*1051 FILLER_0_38_591
*1052 FILLER_0_38_597
*1053 FILLER_0_38_661
*1054 FILLER_0_38_667
*1055 FILLER_0_38_683
*1056 FILLER_0_38_687
*1057 FILLER_0_39_136
*1058 FILLER_0_39_142
*1059 FILLER_0_39_2
*1060 FILLER_0_39_206
*1061 FILLER_0_39_212
*1062 FILLER_0_39_244
*1063 FILLER_0_39_260
*1064 FILLER_0_39_264
*1065 FILLER_0_39_274
*1066 FILLER_0_39_282
*1067 FILLER_0_39_284
*1068 FILLER_0_39_293
*1069 FILLER_0_39_297
*1070 FILLER_0_39_299
*1071 FILLER_0_39_306
*1072 FILLER_0_39_314
*1073 FILLER_0_39_324
*1074 FILLER_0_39_340
*1075 FILLER_0_39_358
*1076 FILLER_0_39_376
*1077 FILLER_0_39_408
*1078 FILLER_0_39_416
*1079 FILLER_0_39_422
*1080 FILLER_0_39_486
*1081 FILLER_0_39_492
*1082 FILLER_0_39_556
*1083 FILLER_0_39_562
*1084 FILLER_0_39_626
*1085 FILLER_0_39_632
*1086 FILLER_0_39_66
*1087 FILLER_0_39_664
*1088 FILLER_0_39_680
*1089 FILLER_0_39_72
*1090 FILLER_0_3_136
*1091 FILLER_0_3_142
*1092 FILLER_0_3_2
*1093 FILLER_0_3_206
*1094 FILLER_0_3_212
*1095 FILLER_0_3_276
*1096 FILLER_0_3_282
*1097 FILLER_0_3_346
*1098 FILLER_0_3_352
*1099 FILLER_0_3_416
*1100 FILLER_0_3_422
*1101 FILLER_0_3_486
*1102 FILLER_0_3_492
*1103 FILLER_0_3_556
*1104 FILLER_0_3_562
*1105 FILLER_0_3_626
*1106 FILLER_0_3_632
*1107 FILLER_0_3_66
*1108 FILLER_0_3_664
*1109 FILLER_0_3_680
*1110 FILLER_0_3_72
*1111 FILLER_0_40_101
*1112 FILLER_0_40_107
*1113 FILLER_0_40_171
*1114 FILLER_0_40_177
*1115 FILLER_0_40_2
*1116 FILLER_0_40_241
*1117 FILLER_0_40_280
*1118 FILLER_0_40_312
*1119 FILLER_0_40_314
*1120 FILLER_0_40_317
*1121 FILLER_0_40_325
*1122 FILLER_0_40_329
*1123 FILLER_0_40_34
*1124 FILLER_0_40_360
*1125 FILLER_0_40_37
*1126 FILLER_0_40_375
*1127 FILLER_0_40_383
*1128 FILLER_0_40_387
*1129 FILLER_0_40_451
*1130 FILLER_0_40_457
*1131 FILLER_0_40_521
*1132 FILLER_0_40_527
*1133 FILLER_0_40_591
*1134 FILLER_0_40_597
*1135 FILLER_0_40_661
*1136 FILLER_0_40_667
*1137 FILLER_0_40_683
*1138 FILLER_0_40_687
*1139 FILLER_0_41_136
*1140 FILLER_0_41_142
*1141 FILLER_0_41_2
*1142 FILLER_0_41_206
*1143 FILLER_0_41_212
*1144 FILLER_0_41_276
*1145 FILLER_0_41_282
*1146 FILLER_0_41_346
*1147 FILLER_0_41_352
*1148 FILLER_0_41_360
*1149 FILLER_0_41_364
*1150 FILLER_0_41_395
*1151 FILLER_0_41_411
*1152 FILLER_0_41_419
*1153 FILLER_0_41_422
*1154 FILLER_0_41_486
*1155 FILLER_0_41_492
*1156 FILLER_0_41_556
*1157 FILLER_0_41_562
*1158 FILLER_0_41_626
*1159 FILLER_0_41_632
*1160 FILLER_0_41_66
*1161 FILLER_0_41_664
*1162 FILLER_0_41_680
*1163 FILLER_0_41_72
*1164 FILLER_0_42_101
*1165 FILLER_0_42_107
*1166 FILLER_0_42_171
*1167 FILLER_0_42_177
*1168 FILLER_0_42_2
*1169 FILLER_0_42_241
*1170 FILLER_0_42_247
*1171 FILLER_0_42_263
*1172 FILLER_0_42_271
*1173 FILLER_0_42_273
*1174 FILLER_0_42_280
*1175 FILLER_0_42_284
*1176 FILLER_0_42_323
*1177 FILLER_0_42_325
*1178 FILLER_0_42_34
*1179 FILLER_0_42_363
*1180 FILLER_0_42_37
*1181 FILLER_0_42_373
*1182 FILLER_0_42_381
*1183 FILLER_0_42_387
*1184 FILLER_0_42_451
*1185 FILLER_0_42_457
*1186 FILLER_0_42_521
*1187 FILLER_0_42_527
*1188 FILLER_0_42_591
*1189 FILLER_0_42_597
*1190 FILLER_0_42_661
*1191 FILLER_0_42_667
*1192 FILLER_0_42_683
*1193 FILLER_0_42_687
*1194 FILLER_0_43_136
*1195 FILLER_0_43_142
*1196 FILLER_0_43_2
*1197 FILLER_0_43_206
*1198 FILLER_0_43_212
*1199 FILLER_0_43_244
*1200 FILLER_0_43_274
*1201 FILLER_0_43_278
*1202 FILLER_0_43_282
*1203 FILLER_0_43_290
*1204 FILLER_0_43_294
*1205 FILLER_0_43_296
*1206 FILLER_0_43_334
*1207 FILLER_0_43_349
*1208 FILLER_0_43_352
*1209 FILLER_0_43_416
*1210 FILLER_0_43_422
*1211 FILLER_0_43_486
*1212 FILLER_0_43_492
*1213 FILLER_0_43_556
*1214 FILLER_0_43_562
*1215 FILLER_0_43_626
*1216 FILLER_0_43_632
*1217 FILLER_0_43_66
*1218 FILLER_0_43_664
*1219 FILLER_0_43_680
*1220 FILLER_0_43_72
*1221 FILLER_0_44_101
*1222 FILLER_0_44_107
*1223 FILLER_0_44_171
*1224 FILLER_0_44_177
*1225 FILLER_0_44_2
*1226 FILLER_0_44_241
*1227 FILLER_0_44_247
*1228 FILLER_0_44_274
*1229 FILLER_0_44_290
*1230 FILLER_0_44_298
*1231 FILLER_0_44_302
*1232 FILLER_0_44_311
*1233 FILLER_0_44_34
*1234 FILLER_0_44_367
*1235 FILLER_0_44_37
*1236 FILLER_0_44_383
*1237 FILLER_0_44_387
*1238 FILLER_0_44_451
*1239 FILLER_0_44_457
*1240 FILLER_0_44_521
*1241 FILLER_0_44_527
*1242 FILLER_0_44_591
*1243 FILLER_0_44_597
*1244 FILLER_0_44_661
*1245 FILLER_0_44_667
*1246 FILLER_0_44_683
*1247 FILLER_0_45_136
*1248 FILLER_0_45_142
*1249 FILLER_0_45_2
*1250 FILLER_0_45_206
*1251 FILLER_0_45_212
*1252 FILLER_0_45_244
*1253 FILLER_0_45_248
*1254 FILLER_0_45_250
*1255 FILLER_0_45_282
*1256 FILLER_0_45_298
*1257 FILLER_0_45_306
*1258 FILLER_0_45_314
*1259 FILLER_0_45_316
*1260 FILLER_0_45_323
*1261 FILLER_0_45_330
*1262 FILLER_0_45_334
*1263 FILLER_0_45_336
*1264 FILLER_0_45_358
*1265 FILLER_0_45_390
*1266 FILLER_0_45_406
*1267 FILLER_0_45_414
*1268 FILLER_0_45_418
*1269 FILLER_0_45_422
*1270 FILLER_0_45_486
*1271 FILLER_0_45_492
*1272 FILLER_0_45_556
*1273 FILLER_0_45_562
*1274 FILLER_0_45_626
*1275 FILLER_0_45_632
*1276 FILLER_0_45_66
*1277 FILLER_0_45_664
*1278 FILLER_0_45_680
*1279 FILLER_0_45_72
*1280 FILLER_0_46_101
*1281 FILLER_0_46_107
*1282 FILLER_0_46_171
*1283 FILLER_0_46_177
*1284 FILLER_0_46_2
*1285 FILLER_0_46_241
*1286 FILLER_0_46_247
*1287 FILLER_0_46_255
*1288 FILLER_0_46_287
*1289 FILLER_0_46_309
*1290 FILLER_0_46_313
*1291 FILLER_0_46_317
*1292 FILLER_0_46_333
*1293 FILLER_0_46_337
*1294 FILLER_0_46_34
*1295 FILLER_0_46_37
*1296 FILLER_0_46_380
*1297 FILLER_0_46_384
*1298 FILLER_0_46_387
*1299 FILLER_0_46_451
*1300 FILLER_0_46_457
*1301 FILLER_0_46_521
*1302 FILLER_0_46_527
*1303 FILLER_0_46_591
*1304 FILLER_0_46_597
*1305 FILLER_0_46_661
*1306 FILLER_0_46_667
*1307 FILLER_0_46_683
*1308 FILLER_0_46_687
*1309 FILLER_0_47_136
*1310 FILLER_0_47_142
*1311 FILLER_0_47_2
*1312 FILLER_0_47_206
*1313 FILLER_0_47_212
*1314 FILLER_0_47_244
*1315 FILLER_0_47_260
*1316 FILLER_0_47_268
*1317 FILLER_0_47_277
*1318 FILLER_0_47_279
*1319 FILLER_0_47_282
*1320 FILLER_0_47_290
*1321 FILLER_0_47_292
*1322 FILLER_0_47_328
*1323 FILLER_0_47_332
*1324 FILLER_0_47_334
*1325 FILLER_0_47_341
*1326 FILLER_0_47_349
*1327 FILLER_0_47_352
*1328 FILLER_0_47_356
*1329 FILLER_0_47_396
*1330 FILLER_0_47_398
*1331 FILLER_0_47_405
*1332 FILLER_0_47_409
*1333 FILLER_0_47_411
*1334 FILLER_0_47_418
*1335 FILLER_0_47_451
*1336 FILLER_0_47_483
*1337 FILLER_0_47_487
*1338 FILLER_0_47_489
*1339 FILLER_0_47_492
*1340 FILLER_0_47_556
*1341 FILLER_0_47_562
*1342 FILLER_0_47_626
*1343 FILLER_0_47_632
*1344 FILLER_0_47_648
*1345 FILLER_0_47_656
*1346 FILLER_0_47_66
*1347 FILLER_0_47_72
*1348 FILLER_0_48_101
*1349 FILLER_0_48_107
*1350 FILLER_0_48_171
*1351 FILLER_0_48_177
*1352 FILLER_0_48_2
*1353 FILLER_0_48_241
*1354 FILLER_0_48_247
*1355 FILLER_0_48_255
*1356 FILLER_0_48_259
*1357 FILLER_0_48_268
*1358 FILLER_0_48_287
*1359 FILLER_0_48_303
*1360 FILLER_0_48_311
*1361 FILLER_0_48_317
*1362 FILLER_0_48_319
*1363 FILLER_0_48_326
*1364 FILLER_0_48_335
*1365 FILLER_0_48_34
*1366 FILLER_0_48_365
*1367 FILLER_0_48_367
*1368 FILLER_0_48_37
*1369 FILLER_0_48_374
*1370 FILLER_0_48_384
*1371 FILLER_0_48_387
*1372 FILLER_0_48_391
*1373 FILLER_0_48_393
*1374 FILLER_0_48_400
*1375 FILLER_0_48_430
*1376 FILLER_0_48_446
*1377 FILLER_0_48_454
*1378 FILLER_0_48_457
*1379 FILLER_0_48_521
*1380 FILLER_0_48_527
*1381 FILLER_0_48_591
*1382 FILLER_0_48_597
*1383 FILLER_0_48_661
*1384 FILLER_0_48_667
*1385 FILLER_0_48_675
*1386 FILLER_0_48_679
*1387 FILLER_0_49_136
*1388 FILLER_0_49_142
*1389 FILLER_0_49_2
*1390 FILLER_0_49_206
*1391 FILLER_0_49_212
*1392 FILLER_0_49_228
*1393 FILLER_0_49_279
*1394 FILLER_0_49_282
*1395 FILLER_0_49_344
*1396 FILLER_0_49_348
*1397 FILLER_0_49_360
*1398 FILLER_0_49_376
*1399 FILLER_0_49_384
*1400 FILLER_0_49_428
*1401 FILLER_0_49_436
*1402 FILLER_0_49_438
*1403 FILLER_0_49_468
*1404 FILLER_0_49_484
*1405 FILLER_0_49_488
*1406 FILLER_0_49_492
*1407 FILLER_0_49_556
*1408 FILLER_0_49_562
*1409 FILLER_0_49_626
*1410 FILLER_0_49_632
*1411 FILLER_0_49_648
*1412 FILLER_0_49_656
*1413 FILLER_0_49_66
*1414 FILLER_0_49_72
*1415 FILLER_0_4_101
*1416 FILLER_0_4_107
*1417 FILLER_0_4_171
*1418 FILLER_0_4_177
*1419 FILLER_0_4_2
*1420 FILLER_0_4_241
*1421 FILLER_0_4_247
*1422 FILLER_0_4_311
*1423 FILLER_0_4_317
*1424 FILLER_0_4_34
*1425 FILLER_0_4_37
*1426 FILLER_0_4_381
*1427 FILLER_0_4_387
*1428 FILLER_0_4_451
*1429 FILLER_0_4_457
*1430 FILLER_0_4_521
*1431 FILLER_0_4_527
*1432 FILLER_0_4_591
*1433 FILLER_0_4_597
*1434 FILLER_0_4_661
*1435 FILLER_0_4_667
*1436 FILLER_0_4_683
*1437 FILLER_0_4_687
*1438 FILLER_0_50_101
*1439 FILLER_0_50_107
*1440 FILLER_0_50_171
*1441 FILLER_0_50_177
*1442 FILLER_0_50_2
*1443 FILLER_0_50_241
*1444 FILLER_0_50_276
*1445 FILLER_0_50_280
*1446 FILLER_0_50_291
*1447 FILLER_0_50_307
*1448 FILLER_0_50_317
*1449 FILLER_0_50_34
*1450 FILLER_0_50_37
*1451 FILLER_0_50_381
*1452 FILLER_0_50_387
*1453 FILLER_0_50_391
*1454 FILLER_0_50_393
*1455 FILLER_0_50_416
*1456 FILLER_0_50_432
*1457 FILLER_0_50_453
*1458 FILLER_0_50_462
*1459 FILLER_0_50_466
*1460 FILLER_0_50_498
*1461 FILLER_0_50_514
*1462 FILLER_0_50_522
*1463 FILLER_0_50_524
*1464 FILLER_0_50_527
*1465 FILLER_0_50_591
*1466 FILLER_0_50_597
*1467 FILLER_0_50_661
*1468 FILLER_0_50_667
*1469 FILLER_0_50_683
*1470 FILLER_0_50_687
*1471 FILLER_0_51_136
*1472 FILLER_0_51_142
*1473 FILLER_0_51_2
*1474 FILLER_0_51_206
*1475 FILLER_0_51_212
*1476 FILLER_0_51_244
*1477 FILLER_0_51_260
*1478 FILLER_0_51_275
*1479 FILLER_0_51_279
*1480 FILLER_0_51_282
*1481 FILLER_0_51_296
*1482 FILLER_0_51_312
*1483 FILLER_0_51_320
*1484 FILLER_0_51_335
*1485 FILLER_0_51_337
*1486 FILLER_0_51_352
*1487 FILLER_0_51_360
*1488 FILLER_0_51_364
*1489 FILLER_0_51_366
*1490 FILLER_0_51_396
*1491 FILLER_0_51_402
*1492 FILLER_0_51_418
*1493 FILLER_0_51_422
*1494 FILLER_0_51_438
*1495 FILLER_0_51_448
*1496 FILLER_0_51_480
*1497 FILLER_0_51_488
*1498 FILLER_0_51_492
*1499 FILLER_0_51_556
*1500 FILLER_0_51_562
*1501 FILLER_0_51_626
*1502 FILLER_0_51_632
*1503 FILLER_0_51_66
*1504 FILLER_0_51_664
*1505 FILLER_0_51_680
*1506 FILLER_0_51_72
*1507 FILLER_0_52_101
*1508 FILLER_0_52_107
*1509 FILLER_0_52_171
*1510 FILLER_0_52_177
*1511 FILLER_0_52_2
*1512 FILLER_0_52_241
*1513 FILLER_0_52_247
*1514 FILLER_0_52_279
*1515 FILLER_0_52_306
*1516 FILLER_0_52_314
*1517 FILLER_0_52_317