*SPEF "ieee 1481-1999"
*DESIGN "user_project_wrapper"
*DATE "11:11:11 Fri 11 11, 1111"
*VENDOR "OpenRCX"
*PROGRAM "Parallel Extraction"
*VERSION "1.0"
*DESIGN_FLOW "NAME_SCOPE LOCAL" "PIN_CAP NONE"
*DIVIDER /
*DELIMITER :
*BUS_DELIMITER []
*T_UNIT 1 NS
*C_UNIT 1 PF
*R_UNIT 1 OHM
*L_UNIT 1 HENRY

*NAME_MAP
*1 io_in[0]
*2 io_in[10]
*3 io_in[11]
*4 io_in[12]
*5 io_in[13]
*6 io_in[14]
*7 io_in[15]
*8 io_in[16]
*9 io_in[17]
*10 io_in[18]
*11 io_in[19]
*12 io_in[1]
*13 io_in[20]
*14 io_in[21]
*15 io_in[22]
*16 io_in[23]
*17 io_in[24]
*18 io_in[25]
*19 io_in[26]
*20 io_in[27]
*21 io_in[28]
*22 io_in[29]
*23 io_in[2]
*24 io_in[30]
*25 io_in[31]
*26 io_in[32]
*27 io_in[33]
*28 io_in[34]
*29 io_in[35]
*30 io_in[36]
*31 io_in[37]
*32 io_in[3]
*33 io_in[4]
*34 io_in[5]
*35 io_in[6]
*36 io_in[7]
*37 io_in[8]
*38 io_in[9]
*39 io_oeb[0]
*40 io_oeb[10]
*41 io_oeb[11]
*42 io_oeb[12]
*43 io_oeb[13]
*44 io_oeb[14]
*45 io_oeb[15]
*46 io_oeb[16]
*47 io_oeb[17]
*48 io_oeb[18]
*49 io_oeb[19]
*50 io_oeb[1]
*51 io_oeb[20]
*52 io_oeb[21]
*53 io_oeb[22]
*54 io_oeb[23]
*55 io_oeb[24]
*56 io_oeb[25]
*57 io_oeb[26]
*58 io_oeb[27]
*59 io_oeb[28]
*60 io_oeb[29]
*61 io_oeb[2]
*62 io_oeb[30]
*63 io_oeb[31]
*64 io_oeb[32]
*65 io_oeb[33]
*66 io_oeb[34]
*67 io_oeb[35]
*68 io_oeb[36]
*69 io_oeb[37]
*70 io_oeb[3]
*71 io_oeb[4]
*72 io_oeb[5]
*73 io_oeb[6]
*74 io_oeb[7]
*75 io_oeb[8]
*76 io_oeb[9]
*77 io_out[0]
*78 io_out[10]
*79 io_out[11]
*80 io_out[12]
*81 io_out[13]
*82 io_out[14]
*83 io_out[15]
*84 io_out[16]
*85 io_out[17]
*86 io_out[18]
*87 io_out[19]
*88 io_out[1]
*89 io_out[20]
*90 io_out[21]
*91 io_out[22]
*92 io_out[23]
*93 io_out[24]
*94 io_out[25]
*95 io_out[26]
*96 io_out[27]
*97 io_out[28]
*98 io_out[29]
*99 io_out[2]
*100 io_out[30]
*101 io_out[31]
*102 io_out[32]
*103 io_out[33]
*104 io_out[34]
*105 io_out[35]
*106 io_out[36]
*107 io_out[37]
*108 io_out[3]
*109 io_out[4]
*110 io_out[5]
*111 io_out[6]
*112 io_out[7]
*113 io_out[8]
*114 io_out[9]
*115 la_data_in[0]
*116 la_data_in[10]
*117 la_data_in[11]
*118 la_data_in[12]
*119 la_data_in[13]
*120 la_data_in[14]
*121 la_data_in[15]
*122 la_data_in[16]
*123 la_data_in[17]
*124 la_data_in[18]
*125 la_data_in[19]
*126 la_data_in[1]
*127 la_data_in[20]
*128 la_data_in[21]
*129 la_data_in[22]
*130 la_data_in[23]
*131 la_data_in[24]
*132 la_data_in[25]
*133 la_data_in[26]
*134 la_data_in[27]
*135 la_data_in[28]
*136 la_data_in[29]
*137 la_data_in[2]
*138 la_data_in[30]
*139 la_data_in[31]
*140 la_data_in[32]
*141 la_data_in[33]
*142 la_data_in[34]
*143 la_data_in[35]
*144 la_data_in[36]
*145 la_data_in[37]
*146 la_data_in[38]
*147 la_data_in[39]
*148 la_data_in[3]
*149 la_data_in[40]
*150 la_data_in[41]
*151 la_data_in[42]
*152 la_data_in[43]
*153 la_data_in[44]
*154 la_data_in[45]
*155 la_data_in[46]
*156 la_data_in[47]
*157 la_data_in[48]
*158 la_data_in[49]
*159 la_data_in[4]
*160 la_data_in[50]
*161 la_data_in[51]
*162 la_data_in[52]
*163 la_data_in[53]
*164 la_data_in[54]
*165 la_data_in[55]
*166 la_data_in[56]
*167 la_data_in[57]
*168 la_data_in[58]
*169 la_data_in[59]
*170 la_data_in[5]
*171 la_data_in[60]
*172 la_data_in[61]
*173 la_data_in[62]
*174 la_data_in[63]
*175 la_data_in[6]
*176 la_data_in[7]
*177 la_data_in[8]
*178 la_data_in[9]
*179 la_data_out[0]
*180 la_data_out[10]
*181 la_data_out[11]
*182 la_data_out[12]
*183 la_data_out[13]
*184 la_data_out[14]
*185 la_data_out[15]
*186 la_data_out[16]
*187 la_data_out[17]
*188 la_data_out[18]
*189 la_data_out[19]
*190 la_data_out[1]
*191 la_data_out[20]
*192 la_data_out[21]
*193 la_data_out[22]
*194 la_data_out[23]
*195 la_data_out[24]
*196 la_data_out[25]
*197 la_data_out[26]
*198 la_data_out[27]
*199 la_data_out[28]
*200 la_data_out[29]
*201 la_data_out[2]
*202 la_data_out[30]
*203 la_data_out[31]
*204 la_data_out[32]
*205 la_data_out[33]
*206 la_data_out[34]
*207 la_data_out[35]
*208 la_data_out[36]
*209 la_data_out[37]
*210 la_data_out[38]
*211 la_data_out[39]
*212 la_data_out[3]
*213 la_data_out[40]
*214 la_data_out[41]
*215 la_data_out[42]
*216 la_data_out[43]
*217 la_data_out[44]
*218 la_data_out[45]
*219 la_data_out[46]
*220 la_data_out[47]
*221 la_data_out[48]
*222 la_data_out[49]
*223 la_data_out[4]
*224 la_data_out[50]
*225 la_data_out[51]
*226 la_data_out[52]
*227 la_data_out[53]
*228 la_data_out[54]
*229 la_data_out[55]
*230 la_data_out[56]
*231 la_data_out[57]
*232 la_data_out[58]
*233 la_data_out[59]
*234 la_data_out[5]
*235 la_data_out[60]
*236 la_data_out[61]
*237 la_data_out[62]
*238 la_data_out[63]
*239 la_data_out[6]
*240 la_data_out[7]
*241 la_data_out[8]
*242 la_data_out[9]
*243 la_oenb[0]
*244 la_oenb[10]
*245 la_oenb[11]
*246 la_oenb[12]
*247 la_oenb[13]
*248 la_oenb[14]
*249 la_oenb[15]
*250 la_oenb[16]
*251 la_oenb[17]
*252 la_oenb[18]
*253 la_oenb[19]
*254 la_oenb[1]
*255 la_oenb[20]
*256 la_oenb[21]
*257 la_oenb[22]
*258 la_oenb[23]
*259 la_oenb[24]
*260 la_oenb[25]
*261 la_oenb[26]
*262 la_oenb[27]
*263 la_oenb[28]
*264 la_oenb[29]
*265 la_oenb[2]
*266 la_oenb[30]
*267 la_oenb[31]
*268 la_oenb[32]
*269 la_oenb[33]
*270 la_oenb[34]
*271 la_oenb[35]
*272 la_oenb[36]
*273 la_oenb[37]
*274 la_oenb[38]
*275 la_oenb[39]
*276 la_oenb[3]
*277 la_oenb[40]
*278 la_oenb[41]
*279 la_oenb[42]
*280 la_oenb[43]
*281 la_oenb[44]
*282 la_oenb[45]
*283 la_oenb[46]
*284 la_oenb[47]
*285 la_oenb[48]
*286 la_oenb[49]
*287 la_oenb[4]
*288 la_oenb[50]
*289 la_oenb[51]
*290 la_oenb[52]
*291 la_oenb[53]
*292 la_oenb[54]
*293 la_oenb[55]
*294 la_oenb[56]
*295 la_oenb[57]
*296 la_oenb[58]
*297 la_oenb[59]
*298 la_oenb[5]
*299 la_oenb[60]
*300 la_oenb[61]
*301 la_oenb[62]
*302 la_oenb[63]
*303 la_oenb[6]
*304 la_oenb[7]
*305 la_oenb[8]
*306 la_oenb[9]
*307 user_clock2
*308 user_irq[0]
*309 user_irq[1]
*310 user_irq[2]
*313 wb_clk_i
*314 wb_rst_i
*315 wbs_ack_o
*316 wbs_adr_i[0]
*317 wbs_adr_i[10]
*318 wbs_adr_i[11]
*319 wbs_adr_i[12]
*320 wbs_adr_i[13]
*321 wbs_adr_i[14]
*322 wbs_adr_i[15]
*323 wbs_adr_i[16]
*324 wbs_adr_i[17]
*325 wbs_adr_i[18]
*326 wbs_adr_i[19]
*327 wbs_adr_i[1]
*328 wbs_adr_i[20]
*329 wbs_adr_i[21]
*330 wbs_adr_i[22]
*331 wbs_adr_i[23]
*332 wbs_adr_i[24]
*333 wbs_adr_i[25]
*334 wbs_adr_i[26]
*335 wbs_adr_i[27]
*336 wbs_adr_i[28]
*337 wbs_adr_i[29]
*338 wbs_adr_i[2]
*339 wbs_adr_i[30]
*340 wbs_adr_i[31]
*341 wbs_adr_i[3]
*342 wbs_adr_i[4]
*343 wbs_adr_i[5]
*344 wbs_adr_i[6]
*345 wbs_adr_i[7]
*346 wbs_adr_i[8]
*347 wbs_adr_i[9]
*348 wbs_cyc_i
*349 wbs_dat_i[0]
*350 wbs_dat_i[10]
*351 wbs_dat_i[11]
*352 wbs_dat_i[12]
*353 wbs_dat_i[13]
*354 wbs_dat_i[14]
*355 wbs_dat_i[15]
*356 wbs_dat_i[16]
*357 wbs_dat_i[17]
*358 wbs_dat_i[18]
*359 wbs_dat_i[19]
*360 wbs_dat_i[1]
*361 wbs_dat_i[20]
*362 wbs_dat_i[21]
*363 wbs_dat_i[22]
*364 wbs_dat_i[23]
*365 wbs_dat_i[24]
*366 wbs_dat_i[25]
*367 wbs_dat_i[26]
*368 wbs_dat_i[27]
*369 wbs_dat_i[28]
*370 wbs_dat_i[29]
*371 wbs_dat_i[2]
*372 wbs_dat_i[30]
*373 wbs_dat_i[31]
*374 wbs_dat_i[3]
*375 wbs_dat_i[4]
*376 wbs_dat_i[5]
*377 wbs_dat_i[6]
*378 wbs_dat_i[7]
*379 wbs_dat_i[8]
*380 wbs_dat_i[9]
*381 wbs_dat_o[0]
*382 wbs_dat_o[10]
*383 wbs_dat_o[11]
*384 wbs_dat_o[12]
*385 wbs_dat_o[13]
*386 wbs_dat_o[14]
*387 wbs_dat_o[15]
*388 wbs_dat_o[16]
*389 wbs_dat_o[17]
*390 wbs_dat_o[18]
*391 wbs_dat_o[19]
*392 wbs_dat_o[1]
*393 wbs_dat_o[20]
*394 wbs_dat_o[21]
*395 wbs_dat_o[22]
*396 wbs_dat_o[23]
*397 wbs_dat_o[24]
*398 wbs_dat_o[25]
*399 wbs_dat_o[26]
*400 wbs_dat_o[27]
*401 wbs_dat_o[28]
*402 wbs_dat_o[29]
*403 wbs_dat_o[2]
*404 wbs_dat_o[30]
*405 wbs_dat_o[31]
*406 wbs_dat_o[3]
*407 wbs_dat_o[4]
*408 wbs_dat_o[5]
*409 wbs_dat_o[6]
*410 wbs_dat_o[7]
*411 wbs_dat_o[8]
*412 wbs_dat_o[9]
*413 wbs_sel_i[0]
*414 wbs_sel_i[1]
*415 wbs_sel_i[2]
*416 wbs_sel_i[3]
*417 wbs_stb_i
*418 wbs_we_i
*419 control_system

*PORTS
io_in[0] I
io_in[10] I
io_in[11] I
io_in[12] I
io_in[13] I
io_in[14] I
io_in[15] I
io_in[16] I
io_in[17] I
io_in[18] I
io_in[19] I
io_in[1] I
io_in[20] I
io_in[21] I
io_in[22] I
io_in[23] I
io_in[24] I
io_in[25] I
io_in[26] I
io_in[27] I
io_in[28] I
io_in[29] I
io_in[2] I
io_in[30] I
io_in[31] I
io_in[32] I
io_in[33] I
io_in[34] I
io_in[35] I
io_in[36] I
io_in[37] I
io_in[3] I
io_in[4] I
io_in[5] I
io_in[6] I
io_in[7] I
io_in[8] I
io_in[9] I
io_oeb[0] O
io_oeb[10] O
io_oeb[11] O
io_oeb[12] O
io_oeb[13] O
io_oeb[14] O
io_oeb[15] O
io_oeb[16] O
io_oeb[17] O
io_oeb[18] O
io_oeb[19] O
io_oeb[1] O
io_oeb[20] O
io_oeb[21] O
io_oeb[22] O
io_oeb[23] O
io_oeb[24] O
io_oeb[25] O
io_oeb[26] O
io_oeb[27] O
io_oeb[28] O
io_oeb[29] O
io_oeb[2] O
io_oeb[30] O
io_oeb[31] O
io_oeb[32] O
io_oeb[33] O
io_oeb[34] O
io_oeb[35] O
io_oeb[36] O
io_oeb[37] O
io_oeb[3] O
io_oeb[4] O
io_oeb[5] O
io_oeb[6] O
io_oeb[7] O
io_oeb[8] O
io_oeb[9] O
io_out[0] O
io_out[10] O
io_out[11] O
io_out[12] O
io_out[13] O
io_out[14] O
io_out[15] O
io_out[16] O
io_out[17] O
io_out[18] O
io_out[19] O
io_out[1] O
io_out[20] O
io_out[21] O
io_out[22] O
io_out[23] O
io_out[24] O
io_out[25] O
io_out[26] O
io_out[27] O
io_out[28] O
io_out[29] O
io_out[2] O
io_out[30] O
io_out[31] O
io_out[32] O
io_out[33] O
io_out[34] O
io_out[35] O
io_out[36] O
io_out[37] O
io_out[3] O
io_out[4] O
io_out[5] O
io_out[6] O
io_out[7] O
io_out[8] O
io_out[9] O
la_data_in[0] I
la_data_in[10] I
la_data_in[11] I
la_data_in[12] I
la_data_in[13] I
la_data_in[14] I
la_data_in[15] I
la_data_in[16] I
la_data_in[17] I
la_data_in[18] I
la_data_in[19] I
la_data_in[1] I
la_data_in[20] I
la_data_in[21] I
la_data_in[22] I
la_data_in[23] I
la_data_in[24] I
la_data_in[25] I
la_data_in[26] I
la_data_in[27] I
la_data_in[28] I
la_data_in[29] I
la_data_in[2] I
la_data_in[30] I
la_data_in[31] I
la_data_in[32] I
la_data_in[33] I
la_data_in[34] I
la_data_in[35] I
la_data_in[36] I
la_data_in[37] I
la_data_in[38] I
la_data_in[39] I
la_data_in[3] I
la_data_in[40] I
la_data_in[41] I
la_data_in[42] I
la_data_in[43] I
la_data_in[44] I
la_data_in[45] I
la_data_in[46] I
la_data_in[47] I
la_data_in[48] I
la_data_in[49] I
la_data_in[4] I
la_data_in[50] I
la_data_in[51] I
la_data_in[52] I
la_data_in[53] I
la_data_in[54] I
la_data_in[55] I
la_data_in[56] I
la_data_in[57] I
la_data_in[58] I
la_data_in[59] I
la_data_in[5] I
la_data_in[60] I
la_data_in[61] I
la_data_in[62] I
la_data_in[63] I
la_data_in[6] I
la_data_in[7] I
la_data_in[8] I
la_data_in[9] I
la_data_out[0] O
la_data_out[10] O
la_data_out[11] O
la_data_out[12] O
la_data_out[13] O
la_data_out[14] O
la_data_out[15] O
la_data_out[16] O
la_data_out[17] O
la_data_out[18] O
la_data_out[19] O
la_data_out[1] O
la_data_out[20] O
la_data_out[21] O
la_data_out[22] O
la_data_out[23] O
la_data_out[24] O
la_data_out[25] O
la_data_out[26] O
la_data_out[27] O
la_data_out[28] O
la_data_out[29] O
la_data_out[2] O
la_data_out[30] O
la_data_out[31] O
la_data_out[32] O
la_data_out[33] O
la_data_out[34] O
la_data_out[35] O
la_data_out[36] O
la_data_out[37] O
la_data_out[38] O
la_data_out[39] O
la_data_out[3] O
la_data_out[40] O
la_data_out[41] O
la_data_out[42] O
la_data_out[43] O
la_data_out[44] O
la_data_out[45] O
la_data_out[46] O
la_data_out[47] O
la_data_out[48] O
la_data_out[49] O
la_data_out[4] O
la_data_out[50] O
la_data_out[51] O
la_data_out[52] O
la_data_out[53] O
la_data_out[54] O
la_data_out[55] O
la_data_out[56] O
la_data_out[57] O
la_data_out[58] O
la_data_out[59] O
la_data_out[5] O
la_data_out[60] O
la_data_out[61] O
la_data_out[62] O
la_data_out[63] O
la_data_out[6] O
la_data_out[7] O
la_data_out[8] O
la_data_out[9] O
la_oenb[0] I
la_oenb[10] I
la_oenb[11] I
la_oenb[12] I
la_oenb[13] I
la_oenb[14] I
la_oenb[15] I
la_oenb[16] I
la_oenb[17] I
la_oenb[18] I
la_oenb[19] I
la_oenb[1] I
la_oenb[20] I
la_oenb[21] I
la_oenb[22] I
la_oenb[23] I
la_oenb[24] I
la_oenb[25] I
la_oenb[26] I
la_oenb[27] I
la_oenb[28] I
la_oenb[29] I
la_oenb[2] I
la_oenb[30] I
la_oenb[31] I
la_oenb[32] I
la_oenb[33] I
la_oenb[34] I
la_oenb[35] I
la_oenb[36] I
la_oenb[37] I
la_oenb[38] I
la_oenb[39] I
la_oenb[3] I
la_oenb[40] I
la_oenb[41] I
la_oenb[42] I
la_oenb[43] I
la_oenb[44] I
la_oenb[45] I
la_oenb[46] I
la_oenb[47] I
la_oenb[48] I
la_oenb[49] I
la_oenb[4] I
la_oenb[50] I
la_oenb[51] I
la_oenb[52] I
la_oenb[53] I
la_oenb[54] I
la_oenb[55] I
la_oenb[56] I
la_oenb[57] I
la_oenb[58] I
la_oenb[59] I
la_oenb[5] I
la_oenb[60] I
la_oenb[61] I
la_oenb[62] I
la_oenb[63] I
la_oenb[6] I
la_oenb[7] I
la_oenb[8] I
la_oenb[9] I
user_clock2 I
user_irq[0] O
user_irq[1] O
user_irq[2] O
wb_clk_i I
wb_rst_i I
wbs_ack_o O
wbs_adr_i[0] I
wbs_adr_i[10] I
wbs_adr_i[11] I
wbs_adr_i[12] I
wbs_adr_i[13] I
wbs_adr_i[14] I
wbs_adr_i[15] I
wbs_adr_i[16] I
wbs_adr_i[17] I
wbs_adr_i[18] I
wbs_adr_i[19] I
wbs_adr_i[1] I
wbs_adr_i[20] I
wbs_adr_i[21] I
wbs_adr_i[22] I
wbs_adr_i[23] I
wbs_adr_i[24] I
wbs_adr_i[25] I
wbs_adr_i[26] I
wbs_adr_i[27] I
wbs_adr_i[28] I
wbs_adr_i[29] I
wbs_adr_i[2] I
wbs_adr_i[30] I
wbs_adr_i[31] I
wbs_adr_i[3] I
wbs_adr_i[4] I
wbs_adr_i[5] I
wbs_adr_i[6] I
wbs_adr_i[7] I
wbs_adr_i[8] I
wbs_adr_i[9] I
wbs_cyc_i I
wbs_dat_i[0] I
wbs_dat_i[10] I
wbs_dat_i[11] I
wbs_dat_i[12] I
wbs_dat_i[13] I
wbs_dat_i[14] I
wbs_dat_i[15] I
wbs_dat_i[16] I
wbs_dat_i[17] I
wbs_dat_i[18] I
wbs_dat_i[19] I
wbs_dat_i[1] I
wbs_dat_i[20] I
wbs_dat_i[21] I
wbs_dat_i[22] I
wbs_dat_i[23] I
wbs_dat_i[24] I
wbs_dat_i[25] I
wbs_dat_i[26] I
wbs_dat_i[27] I
wbs_dat_i[28] I
wbs_dat_i[29] I
wbs_dat_i[2] I
wbs_dat_i[30] I
wbs_dat_i[31] I
wbs_dat_i[3] I
wbs_dat_i[4] I
wbs_dat_i[5] I
wbs_dat_i[6] I
wbs_dat_i[7] I
wbs_dat_i[8] I
wbs_dat_i[9] I
wbs_dat_o[0] O
wbs_dat_o[10] O
wbs_dat_o[11] O
wbs_dat_o[12] O
wbs_dat_o[13] O
wbs_dat_o[14] O
wbs_dat_o[15] O
wbs_dat_o[16] O
wbs_dat_o[17] O
wbs_dat_o[18] O
wbs_dat_o[19] O
wbs_dat_o[1] O
wbs_dat_o[20] O
wbs_dat_o[21] O
wbs_dat_o[22] O
wbs_dat_o[23] O
wbs_dat_o[24] O
wbs_dat_o[25] O
wbs_dat_o[26] O
wbs_dat_o[27] O
wbs_dat_o[28] O
wbs_dat_o[29] O
wbs_dat_o[2] O
wbs_dat_o[30] O
wbs_dat_o[31] O
wbs_dat_o[3] O
wbs_dat_o[4] O
wbs_dat_o[5] O
wbs_dat_o[6] O
wbs_dat_o[7] O
wbs_dat_o[8] O
wbs_dat_o[9] O
wbs_sel_i[0] I
wbs_sel_i[1] I
wbs_sel_i[2] I
wbs_sel_i[3] I
wbs_stb_i I
wbs_we_i I

*D_NET *34 0.222556
*CONN
*P io_in[5] I
*I *419:enable I *D control_system
*CAP
1 io_in[5] 0.0490154
2 *419:enable 0.000487575
3 *34:9 0.00526304
4 *34:7 0.00477546
5 *34:5 0.0490154
6 *419:enable *114:7 0.000132009
7 *34:9 *45:9 0.00087728
8 *34:9 *50:9 0.0598983
9 *34:9 *64:9 0
10 *34:9 *72:9 0.0530912
*RES
1 io_in[5] *34:5 394.065 
2 *34:5 *34:7 4.5 
3 *34:7 *34:9 174.33 
4 *34:9 *419:enable 8.685 
*END

*D_NET *35 0.172318
*CONN
*P io_in[6] I
*I *419:dir I *D control_system
*CAP
1 io_in[6] 0.0489722
2 *419:dir 0.000558454
3 *35:9 0.00462385
4 *35:7 0.00406539
5 *35:5 0.0489722
6 *419:dir *79:7 0.000126948
7 *35:9 *72:9 0.0455022
8 *35:9 *73:11 0.0100226
9 *35:9 *112:11 0.00730768
10 *35:9 *113:11 0.00082204
11 *35:9 *114:9 0.00134412
*RES
1 io_in[6] *35:5 393.705 
2 *35:5 *35:7 4.5 
3 *35:7 *35:9 112.77 
4 *35:9 *419:dir 9.045 
*END

*D_NET *39 0.303577
*CONN
*P io_oeb[0] O
*I *419:io_oeb[0] O *D control_system
*CAP
1 io_oeb[0] 0.0490585
2 *419:io_oeb[0] 0.000505322
3 *39:11 0.0490585
4 *39:9 0.0281981
5 *39:7 0.0287034
6 *39:9 *50:9 0.143893
7 *39:9 *64:9 0.00416031
*RES
1 *419:io_oeb[0] *39:7 8.325 
2 *39:7 *39:9 420.03 
3 *39:9 *39:11 4.5 
4 *39:11 io_oeb[0] 394.425 
*END

*D_NET *40 0.39076
*CONN
*P io_oeb[10] O
*I *419:io_oeb[10] O *D control_system
*CAP
1 io_oeb[10] 0.00106929
2 *419:io_oeb[10] 0.000745281
3 *40:13 0.0208701
4 *40:11 0.0198008
5 *40:9 0.0139868
6 *40:7 0.0147321
7 *40:9 *41:9 0.167779
8 *40:9 *46:9 0.0896862
9 *40:9 *48:9 0.00121591
10 *40:9 *62:9 0.00952748
11 *40:13 *41:13 0.0469769
12 *40:13 *74:9 0.00155204
13 *40:13 *76:9 0.00281816
*RES
1 *419:io_oeb[10] *40:7 9.045 
2 *40:7 *40:9 440.91 
3 *40:9 *40:11 4.5 
4 *40:11 *40:13 265.05 
5 *40:13 io_oeb[10] 12.465 
*END

*D_NET *41 0.342075
*CONN
*P io_oeb[11] O
*I *419:io_oeb[11] O *D control_system
*CAP
1 io_oeb[11] 0.00111245
2 *419:io_oeb[11] 0.000511639
3 *41:13 0.0291287
4 *41:11 0.0280163
5 *41:9 0.0266248
6 *41:7 0.0271365
7 *41:7 *62:7 0.000125841
8 *41:13 *74:9 0.0024858
9 *41:13 *76:9 0.0121775
10 *40:9 *41:9 0.167779
11 *40:13 *41:13 0.0469769
*RES
1 *419:io_oeb[11] *41:7 8.865 
2 *41:7 *41:9 417.87 
3 *41:9 *41:11 4.5 
4 *41:11 *41:13 328.41 
5 *41:13 io_oeb[11] 12.825 
*END

*D_NET *42 0.265574
*CONN
*P io_oeb[12] O
*I *419:io_oeb[12] O *D control_system
*CAP
1 io_oeb[12] 0.0490998
2 *419:io_oeb[12] 0.000495119
3 *42:11 0.0490998
4 *42:9 0.0240552
5 *42:7 0.0245503
6 *42:9 *45:9 0.0276261
7 *42:9 *64:9 0.000593861
8 *42:9 *79:9 0.0900539
*RES
1 *419:io_oeb[12] *42:7 8.325 
2 *42:7 *42:9 307.89 
3 *42:9 *42:11 4.5 
4 *42:11 io_oeb[12] 394.425 
*END

*D_NET *43 0.191396
*CONN
*P io_oeb[13] O
*I *419:io_oeb[13] O *D control_system
*CAP
1 io_oeb[13] 0.0538265
2 *419:io_oeb[13] 0.0418163
3 *43:7 0.0538265
4 *43:5 0.0418163
5 *43:5 *54:7 0.000109911
*RES
1 *419:io_oeb[13] *43:5 323.145 
2 *43:5 *43:7 4.5 
3 *43:7 io_oeb[13] 431.505 
*END

*D_NET *44 0.211271
*CONN
*P io_oeb[14] O
*I *419:io_oeb[14] O *D control_system
*CAP
1 io_oeb[14] 0.0555097
2 *419:io_oeb[14] 0.0501256
3 *44:7 0.0555097
4 *44:5 0.0501256
*RES
1 *419:io_oeb[14] *44:5 386.865 
2 *44:5 *44:7 4.5 
3 *44:7 io_oeb[14] 445.545 
*END

*D_NET *45 0.256104
*CONN
*P io_oeb[15] O
*I *419:io_oeb[15] O *D control_system
*CAP
1 io_oeb[15] 0.00107539
2 *419:io_oeb[15] 0.000450038
3 *45:13 0.0335987
4 *45:11 0.0325233
5 *45:9 0.0613494
6 *45:7 0.0617994
7 *45:7 *50:7 0.00012013
8 *45:9 *79:9 0.000215596
9 *45:9 *314:13 0
10 *45:13 *47:13 0.0364688
11 *34:9 *45:9 0.00087728
12 *42:9 *45:9 0.0276261
*RES
1 *419:io_oeb[15] *45:7 8.325 
2 *45:7 *45:9 471.87 
3 *45:9 *45:11 4.5 
4 *45:11 *45:13 305.91 
5 *45:13 io_oeb[15] 12.825 
*END

*D_NET *46 0.26035
*CONN
*P io_oeb[16] O
*I *419:io_oeb[16] O *D control_system
*CAP
1 io_oeb[16] 0.0689877
2 *419:io_oeb[16] 0.000647443
3 *46:11 0.0689877
4 *46:9 0.0137878
5 *46:7 0.0144352
6 *46:9 *48:9 0.00381765
7 *40:9 *46:9 0.0896862
*RES
1 *419:io_oeb[16] *46:7 9.225 
2 *46:7 *46:9 223.65 
3 *46:9 *46:11 4.5 
4 *46:11 io_oeb[16] 531.225 
*END

*D_NET *47 0.179458
*CONN
*P io_oeb[17] O
*I *419:io_oeb[17] O *D control_system
*CAP
1 io_oeb[17] 0.0010524
2 *419:io_oeb[17] 0.000939188
3 *47:13 0.00674445
4 *47:11 0.00569206
5 *47:9 0.0638111
6 *47:7 0.0647503
7 *45:13 *47:13 0.0364688
*RES
1 *419:io_oeb[17] *47:7 11.025 
2 *47:7 *47:9 491.49 
3 *47:9 *47:11 4.5 
4 *47:11 *47:13 90.63 
5 *47:13 io_oeb[17] 12.645 
*END

*D_NET *48 0.160586
*CONN
*P io_oeb[18] O
*I *419:io_oeb[18] O *D control_system
*CAP
1 io_oeb[18] 0.00111698
2 *419:io_oeb[18] 0.000654477
3 *48:13 0.0655146
4 *48:11 0.0643976
5 *48:9 0.00360548
6 *48:7 0.00425995
7 io_oeb[18] *49:13 0
8 *48:9 *62:9 0.016003
9 *40:9 *48:9 0.00121591
10 *46:9 *48:9 0.00381765
*RES
1 *419:io_oeb[18] *48:7 9.405 
2 *48:7 *48:9 55.89 
3 *48:9 *48:11 4.5 
4 *48:11 *48:13 524.43 
5 *48:13 io_oeb[18] 17.595 
*END

*D_NET *49 0.147721
*CONN
*P io_oeb[19] O
*I *419:io_oeb[19] O *D control_system
*CAP
1 io_oeb[19] 0.00107539
2 *419:io_oeb[19] 0.000121311
3 *49:13 0.0156212
4 *49:11 0.0145458
5 *49:9 0.0581182
6 *49:7 0.0582395
7 io_oeb[18] *49:13 0
*RES
1 *419:io_oeb[19] *49:7 5.445 
2 *49:7 *49:9 448.29 
3 *49:9 *49:11 4.5 
4 *49:11 *49:13 115.47 
5 *49:13 io_oeb[19] 12.825 
*END

*D_NET *50 0.330966
*CONN
*P io_oeb[1] O
*I *419:io_oeb[1] O *D control_system
*CAP
1 io_oeb[1] 0.0490369
2 *419:io_oeb[1] 0.000488589
3 *50:11 0.0490369
4 *50:9 0.014002
5 *50:7 0.0144906
6 *50:9 *64:9 0
7 *34:9 *50:9 0.0598983
8 *39:9 *50:9 0.143893
9 *45:7 *50:7 0.00012013
*RES
1 *419:io_oeb[1] *50:7 8.505 
2 *50:7 *50:9 360.81 
3 *50:9 *50:11 4.5 
4 *50:11 io_oeb[1] 394.245 
*END

*D_NET *51 0.174688
*CONN
*P io_oeb[20] O
*I *419:io_oeb[20] O *D control_system
*CAP
1 io_oeb[20] 0.0509905
2 *419:io_oeb[20] 0.00061743
3 *51:11 0.0509905
4 *51:9 0.00862213
5 *51:7 0.00923956
6 *51:9 *52:9 0.0542278
*RES
1 *419:io_oeb[20] *51:7 8.865 
2 *51:7 *51:9 135.09 
3 *51:9 *51:11 4.5 
4 *51:11 io_oeb[20] 393.885 
*END

*D_NET *52 0.272505
*CONN
*P io_oeb[21] O
*I *419:io_oeb[21] O *D control_system
*CAP
1 io_oeb[21] 0.0510135
2 *419:io_oeb[21] 0.000578478
3 *52:11 0.0510135
4 *52:9 0.00751519
5 *52:7 0.00809367
6 *52:9 *53:9 0.100063
7 *51:9 *52:9 0.0542278
*RES
1 *419:io_oeb[21] *52:7 8.685 
2 *52:7 *52:9 249.03 
3 *52:9 *52:11 4.5 
4 *52:11 io_oeb[21] 394.065 
*END

*D_NET *53 0.363945
*CONN
*P io_oeb[22] O
*I *419:io_oeb[22] O *D control_system
*CAP
1 io_oeb[22] 0.0510365
2 *419:io_oeb[22] 0.000539526
3 *53:11 0.0510365
4 *53:9 0.00767701
5 *53:7 0.00821654
6 *53:9 *54:9 0.145376
7 *52:9 *53:9 0.100063
*RES
1 *419:io_oeb[22] *53:7 8.505 
2 *53:7 *53:9 361.71 
3 *53:9 *53:11 4.5 
4 *53:11 io_oeb[22] 394.245 
*END

*D_NET *54 0.330639
*CONN
*P io_oeb[23] O
*I *419:io_oeb[23] O *D control_system
*CAP
1 io_oeb[23] 0.0510594
2 *419:io_oeb[23] 0.000399418
3 *54:11 0.0510594
4 *54:9 0.0410142
5 *54:7 0.0414136
6 *54:7 *75:7 0.000109911
7 *54:9 io_oeb[8] 9.73358e-05
8 *43:5 *54:7 0.000109911
9 *53:9 *54:9 0.145376
*RES
1 *419:io_oeb[23] *54:7 8.325 
2 *54:7 *54:9 507.15 
3 *54:9 *54:11 4.5 
4 *54:11 io_oeb[23] 394.425 
*END

*D_NET *55 0.302918
*CONN
*P io_oeb[24] O
*I *419:io_oeb[24] O *D control_system
*CAP
1 io_oeb[24] 0.000751787
2 *419:io_oeb[24] 3.548e-05
3 *55:14 0.0282595
4 *55:12 0.0275078
5 *55:10 0.0612934
6 *55:8 0.0613289
7 *55:14 *56:19 0.123741
*RES
1 *419:io_oeb[24] *55:8 9.13179 
2 *55:8 *55:10 234.344 
3 *55:10 *55:12 4.5 
4 *55:12 *55:14 374.628 
5 *55:14 io_oeb[24] 10.665 
*END

*D_NET *56 0.389406
*CONN
*P io_oeb[25] O
*I *419:io_oeb[25] O *D control_system
*CAP
1 io_oeb[25] 0.000790293
2 *419:io_oeb[25] 0.000320329
3 *56:19 0.010053
4 *56:17 0.00926274
5 *56:15 0.0611805
6 *56:13 0.0615008
7 *56:19 *57:21 0.12037
8 *56:19 *62:13 0.00218799
9 *55:14 *56:19 0.123741
*RES
1 *419:io_oeb[25] *56:13 11.0637 
2 *56:13 *56:15 234.344 
3 *56:15 *56:17 4.5 
4 *56:17 *56:19 371.388 
5 *56:19 io_oeb[25] 10.845 
*END

*D_NET *57 0.331995
*CONN
*P io_oeb[26] O
*I *419:io_oeb[26] O *D control_system
*CAP
1 io_oeb[26] 0.000828799
2 *419:io_oeb[26] 0.00183992
3 *57:21 0.00667054
4 *57:19 0.00584174
5 *57:17 0.0596655
6 *57:15 0.0615054
7 *57:21 *58:14 0.0645241
8 *57:21 *59:21 0.0107491
9 *56:19 *57:21 0.12037
*RES
1 *419:io_oeb[26] *57:15 15.3843 
2 *57:15 *57:17 229.571 
3 *57:17 *57:19 4.5 
4 *57:19 *57:21 298.141 
5 *57:21 io_oeb[26] 11.025 
*END

*D_NET *58 0.23468
*CONN
*P io_oeb[27] O
*I *419:io_oeb[27] O *D control_system
*CAP
1 io_oeb[27] 0.000867305
2 *419:io_oeb[27] 3.89415e-05
3 *58:14 0.00535216
4 *58:12 0.00448486
5 *58:10 0.0611912
6 *58:8 0.0612301
7 *58:14 *59:21 0.0369912
8 *57:21 *58:14 0.0645241
*RES
1 *419:io_oeb[27] *58:8 9.14464 
2 *58:8 *58:10 234.115 
3 *58:10 *58:12 4.5 
4 *58:12 *58:14 159.805 
5 *58:14 io_oeb[27] 11.205 
*END

*D_NET *59 0.232717
*CONN
*P io_oeb[28] O
*I *419:io_oeb[28] O *D control_system
*CAP
1 io_oeb[28] 0.000905811
2 *419:io_oeb[28] 0.00180856
3 *59:21 0.00733835
4 *59:19 0.00643253
5 *59:17 0.0730913
6 *59:15 0.0748998
7 *59:21 *60:19 0.0204999
8 *57:21 *59:21 0.0107491
9 *58:14 *59:21 0.0369912
*RES
1 *419:io_oeb[28] *59:15 15.1072 
2 *59:15 *59:17 229.418 
3 *59:17 *59:19 4.5 
4 *59:19 *59:21 148.465 
5 *59:21 io_oeb[28] 11.385 
*END

*D_NET *60 0.293025
*CONN
*P io_oeb[29] O
*I *419:io_oeb[29] O *D control_system
*CAP
1 io_oeb[29] 0.000944317
2 *419:io_oeb[29] 0.000387329
3 *60:19 0.00424615
4 *60:17 0.00330183
5 *60:15 0.131629
6 *60:13 0.132016
7 *59:21 *60:19 0.0204999
*RES
1 *419:io_oeb[29] *60:13 10.9409 
2 *60:13 *60:15 234.038 
3 *60:15 *60:17 4.5 
4 *60:17 *60:19 50.9175 
5 *60:19 io_oeb[29] 11.565 
*END

*D_NET *61 0.201437
*CONN
*P io_oeb[2] O
*I *419:io_oeb[2] O *D control_system
*CAP
1 io_oeb[2] 0.0540676
2 *419:io_oeb[2] 0.000304687
3 *61:15 0.0540676
4 *61:13 0.0463462
5 *61:11 0.0466509
*RES
1 *419:io_oeb[2] *61:11 11.295 
2 *61:11 *61:13 377.01 
3 *61:13 *61:15 4.5 
4 *61:15 io_oeb[2] 433.665 
*END

*D_NET *62 0.174521
*CONN
*P io_oeb[30] O
*I *419:io_oeb[30] O *D control_system
*CAP
1 io_oeb[30] 0.000751969
2 *419:io_oeb[30] 0.000589543
3 *62:13 0.00904789
4 *62:11 0.00829592
5 *62:9 0.0468417
6 *62:7 0.0474312
7 *62:9 *313:9 0.0337188
8 *40:9 *62:9 0.00952748
9 *41:7 *62:7 0.000125841
10 *48:9 *62:9 0.016003
11 *56:19 *62:13 0.00218799
*RES
1 *419:io_oeb[30] *62:7 9.225 
2 *62:7 *62:9 525.69 
3 *62:9 *62:11 4.5 
4 *62:11 *62:13 63.99 
5 *62:13 io_oeb[30] 10.665 
*END

*D_NET *63 0.200847
*CONN
*P io_oeb[31] O
*I *419:io_oeb[31] O *D control_system
*CAP
1 io_oeb[31] 0.0820347
2 *419:io_oeb[31] 0.000102391
3 *63:13 0.0820347
4 *63:11 0.0114213
5 *63:9 0.0115236
6 *63:11 *68:10 0.00190079
7 *63:11 *68:12 0.0118296
*RES
1 *419:io_oeb[31] *63:9 9.765 
2 *63:9 *63:11 136.35 
3 *63:11 *63:13 4.5 
4 *63:13 io_oeb[31] 526.725 
*END

*D_NET *64 0.228862
*CONN
*P io_oeb[32] O
*I *419:io_oeb[32] O *D control_system
*CAP
1 io_oeb[32] 0.0874739
2 *419:io_oeb[32] 0.000400901
3 *64:11 0.0874739
4 *64:9 0.019332
5 *64:7 0.0197329
6 *64:7 *72:7 5.52064e-05
7 *64:9 *72:9 0
8 *64:9 *79:9 0
9 *64:9 *314:13 0.00963882
10 *34:9 *64:9 0
11 *39:9 *64:9 0.00416031
12 *42:9 *64:9 0.000593861
13 *50:9 *64:9 0
*RES
1 *419:io_oeb[32] *64:7 7.245 
2 *64:7 *64:9 173.07 
3 *64:9 *64:11 4.5 
4 *64:11 io_oeb[32] 561.285 
*END

*D_NET *65 0.158747
*CONN
*P io_oeb[33] O
*I *419:io_oeb[33] O *D control_system
*CAP
1 io_oeb[33] 0.0605599
2 *419:io_oeb[33] 0.0188137
3 *65:7 0.0605599
4 *65:5 0.0188137
*RES
1 *419:io_oeb[33] *65:5 144.945 
2 *65:5 *65:7 4.5 
3 *65:7 io_oeb[33] 486.405 
*END

*D_NET *66 0.186338
*CONN
*P io_oeb[34] O
*I *419:io_oeb[34] O *D control_system
*CAP
1 io_oeb[34] 0.0654751
2 *419:io_oeb[34] 0.027694
3 *66:7 0.0654751
4 *66:5 0.027694
*RES
1 *419:io_oeb[34] *66:5 212.985 
2 *66:5 *66:7 4.5 
3 *66:7 io_oeb[34] 525.285 
*END

*D_NET *67 0.247931
*CONN
*P io_oeb[35] O
*I *419:io_oeb[35] O *D control_system
*CAP
1 io_oeb[35] 0.0635681
2 *419:io_oeb[35] 0.00129667
3 *67:14 0.0635681
4 *67:12 0.0497672
5 *67:10 0.0510639
6 *67:12 *69:5 0.0186666
*RES
1 *419:io_oeb[35] *67:10 19.53 
2 *67:10 *67:12 398.34 
3 *67:12 *67:14 4.5 
4 *67:14 io_oeb[35] 509.805 
*END

*D_NET *68 0.25106
*CONN
*P io_oeb[36] O
*I *419:io_oeb[36] O *D control_system
*CAP
1 io_oeb[36] 0.0655274
2 *419:io_oeb[36] 0.00071752
3 *68:14 0.0655274
4 *68:12 0.0524201
5 *68:10 0.0531376
6 *63:11 *68:10 0.00190079
7 *63:11 *68:12 0.0118296
*RES
1 *419:io_oeb[36] *68:10 19.53 
2 *68:10 *68:12 466.38 
3 *68:12 *68:14 4.5 
4 *68:14 io_oeb[36] 526.005 
*END

*D_NET *69 0.254175
*CONN
*P io_oeb[37] O
*I *419:io_oeb[37] O *D control_system
*CAP
1 io_oeb[37] 0.0636114
2 *419:io_oeb[37] 0.0541429
3 *69:7 0.0636114
4 *69:5 0.0541429
5 *67:12 *69:5 0.0186666
*RES
1 *419:io_oeb[37] *69:5 417.105 
2 *69:5 *69:7 4.5 
3 *69:7 io_oeb[37] 510.165 
*END

*D_NET *70 0.204605
*CONN
*P io_oeb[3] O
*I *419:io_oeb[3] O *D control_system
*CAP
1 io_oeb[3] 0.0586116
2 *419:io_oeb[3] 0
3 *70:10 0.0586116
4 *70:8 0.0260401
5 *70:6 0.0260401
6 *70:8 *71:15 0.00405933
7 *70:8 *71:17 0.0312419
*RES
1 *419:io_oeb[3] *70:6 9 
2 *70:6 *70:8 313.11 
3 *70:8 *70:10 4.5 
4 *70:10 io_oeb[3] 469.305 
*END

*D_NET *71 0.189316
*CONN
*P io_oeb[4] O
*I *419:io_oeb[4] O *D control_system
*CAP
1 io_oeb[4] 0.0585468
2 *419:io_oeb[4] 0.000916019
3 *71:19 0.0585468
4 *71:17 0.0175447
5 *71:15 0.0184608
6 *70:8 *71:15 0.00405933
7 *70:8 *71:17 0.0312419
*RES
1 *419:io_oeb[4] *71:15 21.105 
2 *71:15 *71:17 239.4 
3 *71:17 *71:19 4.5 
4 *71:19 io_oeb[4] 468.765 
*END

*D_NET *72 0.210023
*CONN
*P io_oeb[5] O
*I *419:io_oeb[5] O *D control_system
*CAP
1 io_oeb[5] 0.0489938
2 *419:io_oeb[5] 0.000601936
3 *72:11 0.0489938
4 *72:9 0.00213352
5 *72:7 0.00273545
6 *72:9 *79:9 0.00386092
7 *72:9 *114:9 0.00405475
8 *34:9 *72:9 0.0530912
9 *35:9 *72:9 0.0455022
10 *64:7 *72:7 5.52064e-05
11 *64:9 *72:9 0
*RES
1 *419:io_oeb[5] *72:7 8.865 
2 *72:7 *72:9 155.43 
3 *72:9 *72:11 4.5 
4 *72:11 io_oeb[5] 393.885 
*END

*D_NET *73 0.112649
*CONN
*P io_oeb[6] O
*I *419:io_oeb[6] O *D control_system
*CAP
1 io_oeb[6] 0.0490021
2 *419:io_oeb[6] 0.00231107
3 *73:11 0.0513131
4 *35:9 *73:11 0.0100226
*RES
1 *419:io_oeb[6] *73:11 38.655 
2 *73:11 io_oeb[6] 393.525 
*END

*D_NET *74 0.116791
*CONN
*P io_oeb[7] O
*I *419:io_oeb[7] O *D control_system
*CAP
1 io_oeb[7] 0.00110784
2 *419:io_oeb[7] 0.048609
3 *74:9 0.00601787
4 *74:5 0.053519
5 *74:9 *76:9 0.00349946
6 *40:13 *74:9 0.00155204
7 *41:13 *74:9 0.0024858
*RES
1 *419:io_oeb[7] *74:5 390.105 
2 *74:5 *74:9 48.87 
3 *74:9 io_oeb[7] 12.645 
*END

*D_NET *75 0.109632
*CONN
*P io_oeb[8] O
*I *419:io_oeb[8] O *D control_system
*CAP
1 io_oeb[8] 0.0541543
2 *419:io_oeb[8] 0.000557913
3 *75:7 0.0547122
4 *54:7 *75:7 0.000109911
5 *54:9 io_oeb[8] 9.73358e-05
*RES
1 *419:io_oeb[8] *75:7 9.045 
2 *75:7 io_oeb[8] 433.665 
*END

*D_NET *76 0.15039
*CONN
*P io_oeb[9] O
*I *419:io_oeb[9] O *D control_system
*CAP
1 io_oeb[9] 0.00113637
2 *419:io_oeb[9] 0.0485777
3 *76:9 0.0173699
4 *76:7 0.0162336
5 *76:5 0.0485777
6 *40:13 *76:9 0.00281816
7 *41:13 *76:9 0.0121775
8 *74:9 *76:9 0.00349946
*RES
1 *419:io_oeb[9] *76:5 389.925 
2 *76:5 *76:7 4.5 
3 *76:7 *76:9 136.17 
4 *76:9 io_oeb[9] 12.825 
*END

*D_NET *78 0.141403
*CONN
*P io_out[10] O
*I *419:salida[2] O *D control_system
*CAP
1 io_out[10] 0.0563531
2 *419:salida[2] 0.0143485
3 *78:7 0.0563531
4 *78:5 0.0143485
*RES
1 *419:salida[2] *78:5 110.745 
2 *78:5 *78:7 4.5 
3 *78:7 io_out[10] 450.945 
*END

*D_NET *79 0.221311
*CONN
*P io_out[11] O
*I *419:salida[3] O *D control_system
*CAP
1 io_out[11] 0.0490884
2 *419:salida[3] 0.000524484
3 *79:11 0.0490884
4 *79:9 0.0102214
5 *79:7 0.0107458
6 *79:9 *114:9 0.00738486
7 *419:dir *79:7 0.000126948
8 *42:9 *79:9 0.0900539
9 *45:9 *79:9 0.000215596
10 *64:9 *79:9 0
11 *72:9 *79:9 0.00386092
*RES
1 *419:salida[3] *79:7 8.505 
2 *79:7 *79:9 226.17 
3 *79:9 *79:11 4.5 
4 *79:11 io_out[11] 394.245 
*END

*D_NET *112 0.133414
*CONN
*P io_out[7] O
*I *419:clk_s O *D control_system
*CAP
1 io_out[7] 0.0612435
2 *419:clk_s 0.00176702
3 *112:11 0.0630105
4 *112:11 *419:rst 8.51489e-05
5 *35:9 *112:11 0.00730768
*RES
1 *419:clk_s *112:11 31.815 
2 *112:11 io_out[7] 393.525 
*END

*D_NET *113 0.121845
*CONN
*P io_out[8] O