*SPEF "ieee 1481-1999"
*DESIGN "user_project_wrapper"
*DATE "11:11:11 Fri 11 11, 1111"
*VENDOR "OpenRCX"
*PROGRAM "Parallel Extraction"
*VERSION "1.0"
*DESIGN_FLOW "NAME_SCOPE LOCAL" "PIN_CAP NONE"
*DIVIDER /
*DELIMITER :
*BUS_DELIMITER []
*T_UNIT 1 NS
*C_UNIT 1 PF
*R_UNIT 1 OHM
*L_UNIT 1 HENRY

*NAME_MAP
*1 io_in[0]
*2 io_in[10]
*3 io_in[11]
*4 io_in[12]
*5 io_in[13]
*6 io_in[14]
*7 io_in[15]
*8 io_in[16]
*9 io_in[17]
*10 io_in[18]
*11 io_in[19]
*12 io_in[1]
*13 io_in[20]
*14 io_in[21]
*15 io_in[22]
*16 io_in[23]
*17 io_in[24]
*18 io_in[25]
*19 io_in[26]
*20 io_in[27]
*21 io_in[28]
*22 io_in[29]
*23 io_in[2]
*24 io_in[30]
*25 io_in[31]
*26 io_in[32]
*27 io_in[33]
*28 io_in[34]
*29 io_in[35]
*30 io_in[36]
*31 io_in[37]
*32 io_in[3]
*33 io_in[4]
*34 io_in[5]
*35 io_in[6]
*36 io_in[7]
*37 io_in[8]
*38 io_in[9]
*39 io_oeb[0]
*40 io_oeb[10]
*41 io_oeb[11]
*42 io_oeb[12]
*43 io_oeb[13]
*44 io_oeb[14]
*45 io_oeb[15]
*46 io_oeb[16]
*47 io_oeb[17]
*48 io_oeb[18]
*49 io_oeb[19]
*50 io_oeb[1]
*51 io_oeb[20]
*52 io_oeb[21]
*53 io_oeb[22]
*54 io_oeb[23]
*55 io_oeb[24]
*56 io_oeb[25]
*57 io_oeb[26]
*58 io_oeb[27]
*59 io_oeb[28]
*60 io_oeb[29]
*61 io_oeb[2]
*62 io_oeb[30]
*63 io_oeb[31]
*64 io_oeb[32]
*65 io_oeb[33]
*66 io_oeb[34]
*67 io_oeb[35]
*68 io_oeb[36]
*69 io_oeb[37]
*70 io_oeb[3]
*71 io_oeb[4]
*72 io_oeb[5]
*73 io_oeb[6]
*74 io_oeb[7]
*75 io_oeb[8]
*76 io_oeb[9]
*77 io_out[0]
*78 io_out[10]
*79 io_out[11]
*80 io_out[12]
*81 io_out[13]
*82 io_out[14]
*83 io_out[15]
*84 io_out[16]
*85 io_out[17]
*86 io_out[18]
*87 io_out[19]
*88 io_out[1]
*89 io_out[20]
*90 io_out[21]
*91 io_out[22]
*92 io_out[23]
*93 io_out[24]
*94 io_out[25]
*95 io_out[26]
*96 io_out[27]
*97 io_out[28]
*98 io_out[29]
*99 io_out[2]
*100 io_out[30]
*101 io_out[31]
*102 io_out[32]
*103 io_out[33]
*104 io_out[34]
*105 io_out[35]
*106 io_out[36]
*107 io_out[37]
*108 io_out[3]
*109 io_out[4]
*110 io_out[5]
*111 io_out[6]
*112 io_out[7]
*113 io_out[8]
*114 io_out[9]
*115 la_data_in[0]
*116 la_data_in[10]
*117 la_data_in[11]
*118 la_data_in[12]
*119 la_data_in[13]
*120 la_data_in[14]
*121 la_data_in[15]
*122 la_data_in[16]
*123 la_data_in[17]
*124 la_data_in[18]
*125 la_data_in[19]
*126 la_data_in[1]
*127 la_data_in[20]
*128 la_data_in[21]
*129 la_data_in[22]
*130 la_data_in[23]
*131 la_data_in[24]
*132 la_data_in[25]
*133 la_data_in[26]
*134 la_data_in[27]
*135 la_data_in[28]
*136 la_data_in[29]
*137 la_data_in[2]
*138 la_data_in[30]
*139 la_data_in[31]
*140 la_data_in[32]
*141 la_data_in[33]
*142 la_data_in[34]
*143 la_data_in[35]
*144 la_data_in[36]
*145 la_data_in[37]
*146 la_data_in[38]
*147 la_data_in[39]
*148 la_data_in[3]
*149 la_data_in[40]
*150 la_data_in[41]
*151 la_data_in[42]
*152 la_data_in[43]
*153 la_data_in[44]
*154 la_data_in[45]
*155 la_data_in[46]
*156 la_data_in[47]
*157 la_data_in[48]
*158 la_data_in[49]
*159 la_data_in[4]
*160 la_data_in[50]
*161 la_data_in[51]
*162 la_data_in[52]
*163 la_data_in[53]
*164 la_data_in[54]
*165 la_data_in[55]
*166 la_data_in[56]
*167 la_data_in[57]
*168 la_data_in[58]
*169 la_data_in[59]
*170 la_data_in[5]
*171 la_data_in[60]
*172 la_data_in[61]
*173 la_data_in[62]
*174 la_data_in[63]
*175 la_data_in[6]
*176 la_data_in[7]
*177 la_data_in[8]
*178 la_data_in[9]
*179 la_data_out[0]
*180 la_data_out[10]
*181 la_data_out[11]
*182 la_data_out[12]
*183 la_data_out[13]
*184 la_data_out[14]
*185 la_data_out[15]
*186 la_data_out[16]
*187 la_data_out[17]
*188 la_data_out[18]
*189 la_data_out[19]
*190 la_data_out[1]
*191 la_data_out[20]
*192 la_data_out[21]
*193 la_data_out[22]
*194 la_data_out[23]
*195 la_data_out[24]
*196 la_data_out[25]
*197 la_data_out[26]
*198 la_data_out[27]
*199 la_data_out[28]
*200 la_data_out[29]
*201 la_data_out[2]
*202 la_data_out[30]
*203 la_data_out[31]
*204 la_data_out[32]
*205 la_data_out[33]
*206 la_data_out[34]
*207 la_data_out[35]
*208 la_data_out[36]
*209 la_data_out[37]
*210 la_data_out[38]
*211 la_data_out[39]
*212 la_data_out[3]
*213 la_data_out[40]
*214 la_data_out[41]
*215 la_data_out[42]
*216 la_data_out[43]
*217 la_data_out[44]
*218 la_data_out[45]
*219 la_data_out[46]
*220 la_data_out[47]
*221 la_data_out[48]
*222 la_data_out[49]
*223 la_data_out[4]
*224 la_data_out[50]
*225 la_data_out[51]
*226 la_data_out[52]
*227 la_data_out[53]
*228 la_data_out[54]
*229 la_data_out[55]
*230 la_data_out[56]
*231 la_data_out[57]
*232 la_data_out[58]
*233 la_data_out[59]
*234 la_data_out[5]
*235 la_data_out[60]
*236 la_data_out[61]
*237 la_data_out[62]
*238 la_data_out[63]
*239 la_data_out[6]
*240 la_data_out[7]
*241 la_data_out[8]
*242 la_data_out[9]
*243 la_oenb[0]
*244 la_oenb[10]
*245 la_oenb[11]
*246 la_oenb[12]
*247 la_oenb[13]
*248 la_oenb[14]
*249 la_oenb[15]
*250 la_oenb[16]
*251 la_oenb[17]
*252 la_oenb[18]
*253 la_oenb[19]
*254 la_oenb[1]
*255 la_oenb[20]
*256 la_oenb[21]
*257 la_oenb[22]
*258 la_oenb[23]
*259 la_oenb[24]
*260 la_oenb[25]
*261 la_oenb[26]
*262 la_oenb[27]
*263 la_oenb[28]
*264 la_oenb[29]
*265 la_oenb[2]
*266 la_oenb[30]
*267 la_oenb[31]
*268 la_oenb[32]
*269 la_oenb[33]
*270 la_oenb[34]
*271 la_oenb[35]
*272 la_oenb[36]
*273 la_oenb[37]
*274 la_oenb[38]
*275 la_oenb[39]
*276 la_oenb[3]
*277 la_oenb[40]
*278 la_oenb[41]
*279 la_oenb[42]
*280 la_oenb[43]
*281 la_oenb[44]
*282 la_oenb[45]
*283 la_oenb[46]
*284 la_oenb[47]
*285 la_oenb[48]
*286 la_oenb[49]
*287 la_oenb[4]
*288 la_oenb[50]
*289 la_oenb[51]
*290 la_oenb[52]
*291 la_oenb[53]
*292 la_oenb[54]
*293 la_oenb[55]
*294 la_oenb[56]
*295 la_oenb[57]
*296 la_oenb[58]
*297 la_oenb[59]
*298 la_oenb[5]
*299 la_oenb[60]
*300 la_oenb[61]
*301 la_oenb[62]
*302 la_oenb[63]
*303 la_oenb[6]
*304 la_oenb[7]
*305 la_oenb[8]
*306 la_oenb[9]
*307 user_clock2
*308 user_irq[0]
*309 user_irq[1]
*310 user_irq[2]
*313 wb_clk_i
*314 wb_rst_i
*315 wbs_ack_o
*316 wbs_adr_i[0]
*317 wbs_adr_i[10]
*318 wbs_adr_i[11]
*319 wbs_adr_i[12]
*320 wbs_adr_i[13]
*321 wbs_adr_i[14]
*322 wbs_adr_i[15]
*323 wbs_adr_i[16]
*324 wbs_adr_i[17]
*325 wbs_adr_i[18]
*326 wbs_adr_i[19]
*327 wbs_adr_i[1]
*328 wbs_adr_i[20]
*329 wbs_adr_i[21]
*330 wbs_adr_i[22]
*331 wbs_adr_i[23]
*332 wbs_adr_i[24]
*333 wbs_adr_i[25]
*334 wbs_adr_i[26]
*335 wbs_adr_i[27]
*336 wbs_adr_i[28]
*337 wbs_adr_i[29]
*338 wbs_adr_i[2]
*339 wbs_adr_i[30]
*340 wbs_adr_i[31]
*341 wbs_adr_i[3]
*342 wbs_adr_i[4]
*343 wbs_adr_i[5]
*344 wbs_adr_i[6]
*345 wbs_adr_i[7]
*346 wbs_adr_i[8]
*347 wbs_adr_i[9]
*348 wbs_cyc_i
*349 wbs_dat_i[0]
*350 wbs_dat_i[10]
*351 wbs_dat_i[11]
*352 wbs_dat_i[12]
*353 wbs_dat_i[13]
*354 wbs_dat_i[14]
*355 wbs_dat_i[15]
*356 wbs_dat_i[16]
*357 wbs_dat_i[17]
*358 wbs_dat_i[18]
*359 wbs_dat_i[19]
*360 wbs_dat_i[1]
*361 wbs_dat_i[20]
*362 wbs_dat_i[21]
*363 wbs_dat_i[22]
*364 wbs_dat_i[23]
*365 wbs_dat_i[24]
*366 wbs_dat_i[25]
*367 wbs_dat_i[26]
*368 wbs_dat_i[27]
*369 wbs_dat_i[28]
*370 wbs_dat_i[29]
*371 wbs_dat_i[2]
*372 wbs_dat_i[30]
*373 wbs_dat_i[31]
*374 wbs_dat_i[3]
*375 wbs_dat_i[4]
*376 wbs_dat_i[5]
*377 wbs_dat_i[6]
*378 wbs_dat_i[7]
*379 wbs_dat_i[8]
*380 wbs_dat_i[9]
*381 wbs_dat_o[0]
*382 wbs_dat_o[10]
*383 wbs_dat_o[11]
*384 wbs_dat_o[12]
*385 wbs_dat_o[13]
*386 wbs_dat_o[14]
*387 wbs_dat_o[15]
*388 wbs_dat_o[16]
*389 wbs_dat_o[17]
*390 wbs_dat_o[18]
*391 wbs_dat_o[19]
*392 wbs_dat_o[1]
*393 wbs_dat_o[20]
*394 wbs_dat_o[21]
*395 wbs_dat_o[22]
*396 wbs_dat_o[23]
*397 wbs_dat_o[24]
*398 wbs_dat_o[25]
*399 wbs_dat_o[26]
*400 wbs_dat_o[27]
*401 wbs_dat_o[28]
*402 wbs_dat_o[29]
*403 wbs_dat_o[2]
*404 wbs_dat_o[30]
*405 wbs_dat_o[31]
*406 wbs_dat_o[3]
*407 wbs_dat_o[4]
*408 wbs_dat_o[5]
*409 wbs_dat_o[6]
*410 wbs_dat_o[7]
*411 wbs_dat_o[8]
*412 wbs_dat_o[9]
*413 wbs_sel_i[0]
*414 wbs_sel_i[1]
*415 wbs_sel_i[2]
*416 wbs_sel_i[3]
*417 wbs_stb_i
*418 wbs_we_i
*419 control_system

*PORTS
io_in[0] I
io_in[10] I
io_in[11] I
io_in[12] I
io_in[13] I
io_in[14] I
io_in[15] I
io_in[16] I
io_in[17] I
io_in[18] I
io_in[19] I
io_in[1] I
io_in[20] I
io_in[21] I
io_in[22] I
io_in[23] I
io_in[24] I
io_in[25] I
io_in[26] I
io_in[27] I
io_in[28] I
io_in[29] I
io_in[2] I
io_in[30] I
io_in[31] I
io_in[32] I
io_in[33] I
io_in[34] I
io_in[35] I
io_in[36] I
io_in[37] I
io_in[3] I
io_in[4] I
io_in[5] I
io_in[6] I
io_in[7] I
io_in[8] I
io_in[9] I
io_oeb[0] O
io_oeb[10] O
io_oeb[11] O
io_oeb[12] O
io_oeb[13] O
io_oeb[14] O
io_oeb[15] O
io_oeb[16] O
io_oeb[17] O
io_oeb[18] O
io_oeb[19] O
io_oeb[1] O
io_oeb[20] O
io_oeb[21] O
io_oeb[22] O
io_oeb[23] O
io_oeb[24] O
io_oeb[25] O
io_oeb[26] O
io_oeb[27] O
io_oeb[28] O
io_oeb[29] O
io_oeb[2] O
io_oeb[30] O
io_oeb[31] O
io_oeb[32] O
io_oeb[33] O
io_oeb[34] O
io_oeb[35] O
io_oeb[36] O
io_oeb[37] O
io_oeb[3] O
io_oeb[4] O
io_oeb[5] O
io_oeb[6] O
io_oeb[7] O
io_oeb[8] O
io_oeb[9] O
io_out[0] O
io_out[10] O
io_out[11] O
io_out[12] O
io_out[13] O
io_out[14] O
io_out[15] O
io_out[16] O
io_out[17] O
io_out[18] O
io_out[19] O
io_out[1] O
io_out[20] O
io_out[21] O
io_out[22] O
io_out[23] O
io_out[24] O
io_out[25] O
io_out[26] O
io_out[27] O
io_out[28] O
io_out[29] O
io_out[2] O
io_out[30] O
io_out[31] O
io_out[32] O
io_out[33] O
io_out[34] O
io_out[35] O
io_out[36] O
io_out[37] O
io_out[3] O
io_out[4] O
io_out[5] O
io_out[6] O
io_out[7] O
io_out[8] O
io_out[9] O
la_data_in[0] I
la_data_in[10] I
la_data_in[11] I
la_data_in[12] I
la_data_in[13] I
la_data_in[14] I
la_data_in[15] I
la_data_in[16] I
la_data_in[17] I
la_data_in[18] I
la_data_in[19] I
la_data_in[1] I
la_data_in[20] I
la_data_in[21] I
la_data_in[22] I
la_data_in[23] I
la_data_in[24] I
la_data_in[25] I
la_data_in[26] I
la_data_in[27] I
la_data_in[28] I
la_data_in[29] I
la_data_in[2] I
la_data_in[30] I
la_data_in[31] I
la_data_in[32] I
la_data_in[33] I
la_data_in[34] I
la_data_in[35] I
la_data_in[36] I
la_data_in[37] I
la_data_in[38] I
la_data_in[39] I
la_data_in[3] I
la_data_in[40] I
la_data_in[41] I
la_data_in[42] I
la_data_in[43] I
la_data_in[44] I
la_data_in[45] I
la_data_in[46] I
la_data_in[47] I
la_data_in[48] I
la_data_in[49] I
la_data_in[4] I
la_data_in[50] I
la_data_in[51] I
la_data_in[52] I
la_data_in[53] I
la_data_in[54] I
la_data_in[55] I
la_data_in[56] I
la_data_in[57] I
la_data_in[58] I
la_data_in[59] I
la_data_in[5] I
la_data_in[60] I
la_data_in[61] I
la_data_in[62] I
la_data_in[63] I
la_data_in[6] I
la_data_in[7] I
la_data_in[8] I
la_data_in[9] I
la_data_out[0] O
la_data_out[10] O
la_data_out[11] O
la_data_out[12] O
la_data_out[13] O
la_data_out[14] O
la_data_out[15] O
la_data_out[16] O
la_data_out[17] O
la_data_out[18] O
la_data_out[19] O
la_data_out[1] O
la_data_out[20] O
la_data_out[21] O
la_data_out[22] O
la_data_out[23] O
la_data_out[24] O
la_data_out[25] O
la_data_out[26] O
la_data_out[27] O
la_data_out[28] O
la_data_out[29] O
la_data_out[2] O
la_data_out[30] O
la_data_out[31] O
la_data_out[32] O
la_data_out[33] O
la_data_out[34] O
la_data_out[35] O
la_data_out[36] O
la_data_out[37] O
la_data_out[38] O
la_data_out[39] O
la_data_out[3] O
la_data_out[40] O
la_data_out[41] O
la_data_out[42] O
la_data_out[43] O
la_data_out[44] O
la_data_out[45] O
la_data_out[46] O
la_data_out[47] O
la_data_out[48] O
la_data_out[49] O
la_data_out[4] O
la_data_out[50] O
la_data_out[51] O
la_data_out[52] O
la_data_out[53] O
la_data_out[54] O
la_data_out[55] O
la_data_out[56] O
la_data_out[57] O
la_data_out[58] O
la_data_out[59] O
la_data_out[5] O
la_data_out[60] O
la_data_out[61] O
la_data_out[62] O
la_data_out[63] O
la_data_out[6] O
la_data_out[7] O
la_data_out[8] O
la_data_out[9] O
la_oenb[0] I
la_oenb[10] I
la_oenb[11] I
la_oenb[12] I
la_oenb[13] I
la_oenb[14] I
la_oenb[15] I
la_oenb[16] I
la_oenb[17] I
la_oenb[18] I
la_oenb[19] I
la_oenb[1] I
la_oenb[20] I
la_oenb[21] I
la_oenb[22] I
la_oenb[23] I
la_oenb[24] I
la_oenb[25] I
la_oenb[26] I
la_oenb[27] I
la_oenb[28] I
la_oenb[29] I
la_oenb[2] I
la_oenb[30] I
la_oenb[31] I
la_oenb[32] I
la_oenb[33] I
la_oenb[34] I
la_oenb[35] I
la_oenb[36] I
la_oenb[37] I
la_oenb[38] I
la_oenb[39] I
la_oenb[3] I
la_oenb[40] I
la_oenb[41] I
la_oenb[42] I
la_oenb[43] I
la_oenb[44] I
la_oenb[45] I
la_oenb[46] I
la_oenb[47] I
la_oenb[48] I
la_oenb[49] I
la_oenb[4] I
la_oenb[50] I
la_oenb[51] I
la_oenb[52] I
la_oenb[53] I
la_oenb[54] I
la_oenb[55] I
la_oenb[56] I
la_oenb[57] I
la_oenb[58] I
la_oenb[59] I
la_oenb[5] I
la_oenb[60] I
la_oenb[61] I
la_oenb[62] I
la_oenb[63] I
la_oenb[6] I
la_oenb[7] I
la_oenb[8] I
la_oenb[9] I
user_clock2 I
user_irq[0] O
user_irq[1] O
user_irq[2] O
wb_clk_i I
wb_rst_i I
wbs_ack_o O
wbs_adr_i[0] I
wbs_adr_i[10] I
wbs_adr_i[11] I
wbs_adr_i[12] I
wbs_adr_i[13] I
wbs_adr_i[14] I
wbs_adr_i[15] I
wbs_adr_i[16] I
wbs_adr_i[17] I
wbs_adr_i[18] I
wbs_adr_i[19] I
wbs_adr_i[1] I
wbs_adr_i[20] I
wbs_adr_i[21] I
wbs_adr_i[22] I
wbs_adr_i[23] I
wbs_adr_i[24] I
wbs_adr_i[25] I
wbs_adr_i[26] I
wbs_adr_i[27] I
wbs_adr_i[28] I
wbs_adr_i[29] I
wbs_adr_i[2] I
wbs_adr_i[30] I
wbs_adr_i[31] I
wbs_adr_i[3] I
wbs_adr_i[4] I
wbs_adr_i[5] I
wbs_adr_i[6] I
wbs_adr_i[7] I
wbs_adr_i[8] I
wbs_adr_i[9] I
wbs_cyc_i I
wbs_dat_i[0] I
wbs_dat_i[10] I
wbs_dat_i[11] I
wbs_dat_i[12] I
wbs_dat_i[13] I
wbs_dat_i[14] I
wbs_dat_i[15] I
wbs_dat_i[16] I
wbs_dat_i[17] I
wbs_dat_i[18] I
wbs_dat_i[19] I
wbs_dat_i[1] I
wbs_dat_i[20] I
wbs_dat_i[21] I
wbs_dat_i[22] I
wbs_dat_i[23] I
wbs_dat_i[24] I
wbs_dat_i[25] I
wbs_dat_i[26] I
wbs_dat_i[27] I
wbs_dat_i[28] I
wbs_dat_i[29] I
wbs_dat_i[2] I
wbs_dat_i[30] I
wbs_dat_i[31] I
wbs_dat_i[3] I
wbs_dat_i[4] I
wbs_dat_i[5] I
wbs_dat_i[6] I
wbs_dat_i[7] I
wbs_dat_i[8] I
wbs_dat_i[9] I
wbs_dat_o[0] O
wbs_dat_o[10] O
wbs_dat_o[11] O
wbs_dat_o[12] O
wbs_dat_o[13] O
wbs_dat_o[14] O
wbs_dat_o[15] O
wbs_dat_o[16] O
wbs_dat_o[17] O
wbs_dat_o[18] O
wbs_dat_o[19] O
wbs_dat_o[1] O
wbs_dat_o[20] O
wbs_dat_o[21] O
wbs_dat_o[22] O
wbs_dat_o[23] O
wbs_dat_o[24] O
wbs_dat_o[25] O
wbs_dat_o[26] O
wbs_dat_o[27] O
wbs_dat_o[28] O
wbs_dat_o[29] O
wbs_dat_o[2] O
wbs_dat_o[30] O
wbs_dat_o[31] O
wbs_dat_o[3] O
wbs_dat_o[4] O
wbs_dat_o[5] O
wbs_dat_o[6] O
wbs_dat_o[7] O
wbs_dat_o[8] O
wbs_dat_o[9] O
wbs_sel_i[0] I
wbs_sel_i[1] I
wbs_sel_i[2] I
wbs_sel_i[3] I
wbs_stb_i I
wbs_we_i I

*D_NET *34 0.202471
*CONN
*P io_in[5] I
*I *419:enable I *D control_system
*CAP
1 io_in[5] 0.0466134
2 *419:enable 0.000458566
3 *34:9 0.00493399
4 *34:7 0.00447543
5 *34:5 0.0466134
6 *419:enable *114:7 0.000127699
7 *34:9 *45:9 0.000792394
8 *34:9 *50:9 0.0521944
9 *34:9 *64:9 0
10 *34:9 *72:9 0.0462619
*RES
1 io_in[5] *34:5 332.766 
2 *34:5 *34:7 4.5 
3 *34:7 *34:9 147.212 
4 *34:9 *419:enable 8.034 
*END

*D_NET *35 0.158663
*CONN
*P io_in[6] I
*I *419:dir I *D control_system
*CAP
1 io_in[6] 0.0465721
2 *419:dir 0.000522629
3 *35:9 0.00435386
4 *35:7 0.00383123
5 *35:5 0.0465721
6 *419:dir *79:7 0.000122802
7 *35:9 *72:9 0.0396503
8 *35:9 *73:11 0.00873251
9 *35:9 *112:11 0.0063681
10 *35:9 *113:9 0.000766031
11 *35:9 *114:9 0.0011714
*RES
1 io_in[6] *35:5 332.462 
2 *35:5 *35:7 4.5 
3 *35:7 *35:9 95.228 
4 *35:9 *419:dir 8.338 
*END

*D_NET *39 0.277117
*CONN
*P io_oeb[0] O
*I *419:io_oeb[0] O *D control_system
*CAP
1 io_oeb[0] 0.0466546
2 *419:io_oeb[0] 0.000476404
3 *39:11 0.0466546
4 *39:9 0.0267311
5 *39:7 0.0272075
6 *39:9 *50:9 0.125385
7 *39:9 *64:9 0.00400724
*RES
1 *419:io_oeb[0] *39:7 7.73 
2 *39:7 *39:9 354.692 
3 *39:9 *39:11 4.5 
4 *39:11 io_oeb[0] 333.07 
*END

*D_NET *40 0.348503
*CONN
*P io_oeb[10] O
*I *419:io_oeb[10] O *D control_system
*CAP
1 io_oeb[10] 0.00100573
2 *419:io_oeb[10] 0.00069155
3 *40:13 0.0196485
4 *40:11 0.0186427
5 *40:9 0.0131678
6 *40:7 0.0138593
7 *40:9 *41:9 0.146202
8 *40:9 *46:9 0.0781497
9 *40:9 *48:9 0.00113323
10 *40:9 *62:9 0.00830122
11 *40:13 *41:13 0.0437779
12 *40:13 *74:11 0.00137763
13 *40:13 *76:9 0.00254548
*RES
1 *419:io_oeb[10] *40:7 8.338 
2 *40:7 *40:9 372.324 
3 *40:9 *40:11 4.5 
4 *40:11 *40:13 223.82 
5 *40:13 io_oeb[10] 11.226 
*END

*D_NET *41 0.3098
*CONN
*P io_oeb[11] O
*I *419:io_oeb[11] O *D control_system
*CAP
1 io_oeb[11] 0.001047
2 *419:io_oeb[11] 0.000483672
3 *41:13 0.0274929
4 *41:11 0.0264459
5 *41:9 0.0252297
6 *41:7 0.0257134
7 *41:7 *62:7 0.000121939
8 *41:13 *74:11 0.00220646
9 *41:13 *76:9 0.0110794
10 *40:9 *41:9 0.146202
11 *40:13 *41:13 0.0437779
*RES
1 *419:io_oeb[11] *41:7 8.186 
2 *41:7 *41:9 352.868 
3 *41:9 *41:11 4.5 
4 *41:11 *41:13 277.324 
5 *41:13 io_oeb[11] 11.53 
*END

*D_NET *42 0.244182
*CONN
*P io_oeb[12] O
*I *419:io_oeb[12] O *D control_system
*CAP
1 io_oeb[12] 0.0466877
2 *419:io_oeb[12] 0.000467708
3 *42:11 0.0466877
4 *42:9 0.0228459
5 *42:7 0.0233136
6 *42:9 *45:9 0.0251349
7 *42:9 *64:9 0.000571288
8 *42:9 *79:9 0.0784732
*RES
1 *419:io_oeb[12] *42:7 7.73 
2 *42:7 *42:9 259.996 
3 *42:9 *42:11 4.5 
4 *42:11 io_oeb[12] 333.07 
*END

*D_NET *43 0.181889
*CONN
*P io_oeb[13] O
*I *419:io_oeb[13] O *D control_system
*CAP
1 io_oeb[13] 0.051167
2 *419:io_oeb[13] 0.0397243
3 *43:7 0.051167
4 *43:5 0.0397243
5 *43:5 *54:7 0.000106512
*RES
1 *419:io_oeb[13] *43:5 272.878 
2 *43:5 *43:7 4.5 
3 *43:7 io_oeb[13] 364.382 
*END

*D_NET *44 0.200794
*CONN
*P io_oeb[14] O
*I *419:io_oeb[14] O *D control_system
*CAP
1 io_oeb[14] 0.0527767
2 *419:io_oeb[14] 0.0476202
3 *44:7 0.0527767
4 *44:5 0.0476202
*RES
1 *419:io_oeb[14] *44:5 326.686 
2 *44:5 *44:7 4.5 
3 *44:7 io_oeb[14] 376.238 
*END

*D_NET *45 0.239044
*CONN
*P io_oeb[15] O
*I *419:io_oeb[15] O *D control_system
*CAP
1 io_oeb[15] 0.00102104
2 *419:io_oeb[15] 0.00042262
3 *45:13 0.0319355
4 *45:11 0.0309145
5 *45:9 0.0582518
6 *45:7 0.0586744
7 *45:7 *50:7 0.000116503
8 *45:9 *314:13 0
9 *45:13 *47:13 0.0317806
10 *34:9 *45:9 0.000792394
11 *42:9 *45:9 0.0251349
*RES
1 *419:io_oeb[15] *45:7 7.73 
2 *45:7 *45:9 398.468 
3 *45:9 *45:11 4.5 
4 *45:11 *45:13 258.324 
5 *45:13 io_oeb[15] 11.53 
*END

*D_NET *46 0.239814
*CONN
*P io_oeb[16] O
*I *419:io_oeb[16] O *D control_system
*CAP
1 io_oeb[16] 0.0655139
2 *419:io_oeb[16] 0.000609309
3 *46:11 0.0655139
4 *46:9 0.0130454
5 *46:7 0.0136547
6 *46:9 *48:9 0.00332723
7 *40:9 *46:9 0.0781497
*RES
1 *419:io_oeb[16] *46:7 8.49 
2 *46:7 *46:9 188.86 
3 *46:9 *46:11 4.5 
4 *46:11 io_oeb[16] 448.59 
*END

*D_NET *47 0.167544
*CONN
*P io_oeb[17] O
*I *419:io_oeb[17] O *D control_system
*CAP
1 io_oeb[17] 0.000999175
2 *419:io_oeb[17] 0.000875071
3 *47:13 0.00640483
4 *47:11 0.00540566
5 *47:9 0.0606017
6 *47:7 0.0614767
7 *45:13 *47:13 0.0317806
*RES
1 *419:io_oeb[17] *47:7 10.01 
2 *47:7 *47:9 415.036 
3 *47:9 *47:11 4.5 
4 *47:11 *47:13 76.532 
5 *47:13 io_oeb[17] 11.378 
*END

*D_NET *48 0.151068
*CONN
*P io_oeb[18] O
*I *419:io_oeb[18] O *D control_system
*CAP
1 io_oeb[18] 0.00105886
2 *419:io_oeb[18] 0.000618356
3 *48:13 0.0623053
4 *48:11 0.0612464
5 *48:9 0.00340856
6 *48:7 0.00402691
7 io_oeb[18] *49:13 0
8 *48:9 *62:9 0.0139433
9 *40:9 *48:9 0.00113323
10 *46:9 *48:9 0.00332723
*RES
1 *419:io_oeb[18] *48:7 8.642 
2 *48:7 *48:9 47.196 
3 *48:9 *48:11 4.5 
4 *48:11 *48:13 442.852 
5 *48:13 io_oeb[18] 16.258 
*END

*D_NET *49 0.140305
*CONN
*P io_oeb[19] O
*I *419:io_oeb[19] O *D control_system
*CAP
1 io_oeb[19] 0.00102104
2 *419:io_oeb[19] 0.000115273
3 *49:13 0.014828
4 *49:11 0.013807
5 *49:9 0.055209
6 *49:7 0.0553243
7 io_oeb[18] *49:13 0
*RES
1 *419:io_oeb[19] *49:7 5.298 
2 *49:7 *49:9 378.556 
3 *49:9 *49:11 4.5 
4 *49:11 *49:13 97.508 
5 *49:13 io_oeb[19] 11.53 
*END

*D_NET *50 0.298329
*CONN
*P io_oeb[1] O
*I *419:io_oeb[1] O *D control_system
*CAP
1 io_oeb[1] 0.046634
2 *419:io_oeb[1] 0.000456992
3 *50:11 0.046634
4 *50:9 0.0132255
5 *50:7 0.0136825
6 *50:9 *64:9 0
7 *34:9 *50:9 0.0521944
8 *39:9 *50:9 0.125385
9 *45:7 *50:7 0.000116503
*RES
1 *419:io_oeb[1] *50:7 7.882 
2 *50:7 *50:9 304.684 
3 *50:9 *50:11 4.5 
4 *50:11 io_oeb[1] 332.918 
*END

*D_NET *51 0.161642
*CONN
*P io_oeb[20] O
*I *419:io_oeb[20] O *D control_system
*CAP
1 io_oeb[20] 0.0484475
2 *419:io_oeb[20] 0.000578405
3 *51:11 0.0484475
4 *51:9 0.00816828
5 *51:7 0.00874668
6 *51:9 *52:9 0.0472536
*RES
1 *419:io_oeb[20] *51:7 8.186 
2 *51:7 *51:9 114.076 
3 *51:9 *51:11 4.5 
4 *51:11 io_oeb[20] 332.614 
*END

*D_NET *52 0.246649
*CONN
*P io_oeb[21] O
*I *419:io_oeb[21] O *D control_system
*CAP
1 io_oeb[21] 0.0484693
2 *419:io_oeb[21] 0.000543714
3 *52:11 0.0484693
4 *52:9 0.00708642
5 *52:7 0.00763014
6 *52:9 *53:9 0.0871962
7 *51:9 *52:9 0.0472536
*RES
1 *419:io_oeb[21] *52:7 8.034 
2 *52:7 *52:9 210.292 
3 *52:9 *52:11 4.5 
4 *52:11 io_oeb[21] 332.766 
*END

*D_NET *53 0.326294
*CONN
*P io_oeb[22] O
*I *419:io_oeb[22] O *D control_system
*CAP
1 io_oeb[22] 0.0484912
2 *419:io_oeb[22] 0.000509023
3 *53:11 0.0484912
4 *53:9 0.00720692
5 *53:7 0.00771595
6 *53:9 *54:9 0.126684
7 *52:9 *53:9 0.0871962
*RES
1 *419:io_oeb[22] *53:7 7.882 
2 *53:7 *53:9 305.444 
3 *53:9 *53:11 4.5 
4 *53:11 io_oeb[22] 332.918 
*END

*D_NET *54 0.302645
*CONN
*P io_oeb[23] O
*I *419:io_oeb[23] O *D control_system
*CAP
1 io_oeb[23] 0.0485131
2 *419:io_oeb[23] 0.000376043
3 *54:11 0.0485131
4 *54:9 0.0389381
5 *54:7 0.0393142
6 *54:7 *75:7 0.000106512
7 *54:9 io_oeb[8] 9.34286e-05
8 *43:5 *54:7 0.000106512
9 *53:9 *54:9 0.126684
*RES
1 *419:io_oeb[23] *54:7 7.73 
2 *54:7 *54:9 428.26 
3 *54:9 *54:11 4.5 
4 *54:11 io_oeb[23] 333.07 
*END

*D_NET *55 0.277826
*CONN
*P io_oeb[24] O
*I *419:io_oeb[24] O *D control_system
*CAP
1 io_oeb[24] 0.000717091
2 *419:io_oeb[24] 3.21991e-05
3 *55:14 0.0268345
4 *55:12 0.0261174
5 *55:10 0.0581339
6 *55:8 0.0581661
7 *55:14 *56:19 0.107825
*RES
1 *419:io_oeb[24] *55:8 9.11129 
2 *55:8 *55:10 195.286 
3 *55:10 *55:12 4.5 
4 *55:12 *55:14 316.353 
5 *55:14 io_oeb[24] 9.706 
*END

*D_NET *56 0.350254
*CONN
*P io_oeb[25] O
*I *419:io_oeb[25] O *D control_system
*CAP
1 io_oeb[25] 0.000751411
2 *419:io_oeb[25] 0.000303816
3 *56:19 0.00945841
4 *56:17 0.008707
5 *56:15 0.0580369
6 *56:13 0.0583408
7 *56:19 *57:21 0.104888
8 *56:19 *62:13 0.00194212
9 *55:14 *56:19 0.107825
*RES
1 *419:io_oeb[25] *56:13 10.7393 
2 *56:13 *56:15 195.286 
3 *56:15 *56:17 4.5 
4 *56:17 *56:19 313.617 
5 *56:19 io_oeb[25] 9.858 
*END

*D_NET *57 0.300299
*CONN
*P io_oeb[26] O
*I *419:io_oeb[26] O *D control_system
*CAP
1 io_oeb[26] 0.000785731
2 *419:io_oeb[26] 0.00171599
3 *57:21 0.00624421
4 *57:19 0.00545848
5 *57:17 0.0566232
6 *57:15 0.0583392
7 *57:21 *58:14 0.0562255
8 *57:21 *59:21 0.010018
9 *56:19 *57:21 0.104888
*RES
1 *419:io_oeb[26] *57:15 14.3344 
2 *57:15 *57:17 191.309 
3 *57:17 *57:19 4.5 
4 *57:19 *57:21 251.764 
5 *57:21 io_oeb[26] 10.01 
*END

*D_NET *58 0.214699
*CONN
*P io_oeb[27] O
*I *419:io_oeb[27] O *D control_system
*CAP
1 io_oeb[27] 0.000820051
2 *419:io_oeb[27] 3.53404e-05
3 *58:14 0.00504454
4 *58:12 0.00422449
5 *58:10 0.0580408
6 *58:8 0.0580761
7 *58:14 *59:21 0.0322319
8 *57:21 *58:14 0.0562255
*RES
1 *419:io_oeb[27] *58:8 9.12214 
2 *58:8 *58:10 195.095 
3 *58:10 *58:12 4.5 
4 *58:12 *58:14 134.946 
5 *58:14 io_oeb[27] 10.162 
*END

*D_NET *59 0.214556
*CONN
*P io_oeb[28] O
*I *419:io_oeb[28] O *D control_system
*CAP
1 io_oeb[28] 0.000854371
2 *419:io_oeb[28] 0.00168362
3 *59:21 0.00692461
4 *59:19 0.00607023
5 *59:17 0.0686139
6 *59:15 0.0702975
7 *59:21 *60:19 0.0178616
8 *57:21 *59:21 0.010018
9 *58:14 *59:21 0.0322319
*RES
1 *419:io_oeb[28] *59:15 14.1018 
2 *59:15 *59:17 191.182 
3 *59:17 *59:19 4.5 
4 *59:19 *59:21 125.37 
5 *59:21 io_oeb[28] 10.314 
*END

*D_NET *60 0.264543
*CONN
*P io_oeb[29] O
*I *419:io_oeb[29] O *D control_system
*CAP
1 io_oeb[29] 0.000888691
2 *419:io_oeb[29] 0.000360191
3 *60:19 0.00401226
4 *60:15 0.122092
5 *60:13 0.119328
6 *59:21 *60:19 0.0178616
*RES
1 *419:io_oeb[29] *60:13 10.637 
2 *60:13 *60:15 195.032 
3 *60:15 *60:19 47.497 
4 *60:19 io_oeb[29] 10.466 
*END

*D_NET *61 0.191518
*CONN
*P io_oeb[2] O
*I *419:io_oeb[2] O *D control_system
*CAP
1 io_oeb[2] 0.0514001
2 *419:io_oeb[2] 0.000288013
3 *61:15 0.0514001
4 *61:13 0.0440709
5 *61:11 0.0443589
*RES
1 *419:io_oeb[2] *61:11 10.938 
2 *61:11 *61:13 318.364 
3 *61:13 *61:15 4.5 
4 *61:15 io_oeb[2] 366.206 
*END

*D_NET *62 0.163589
*CONN
*P io_oeb[30] O
*I *419:io_oeb[30] O *D control_system
*CAP
1 io_oeb[30] 0.000717285
2 *419:io_oeb[30] 0.000553054
3 *62:13 0.00859695
4 *62:11 0.00787967
5 *62:9 0.0442876
6 *62:7 0.0448406
7 *62:9 *313:9 0.0324053
8 *40:9 *62:9 0.00830122
9 *41:7 *62:7 0.000121939
10 *48:9 *62:9 0.0139433
11 *56:19 *62:13 0.00194212
*RES
1 *419:io_oeb[30] *62:7 8.49 
2 *62:7 *62:9 443.916 
3 *62:9 *62:11 4.5 
4 *62:11 *62:13 54.036 
5 *62:13 io_oeb[30] 9.706 
*END

*D_NET *63 0.188117
*CONN
*P io_oeb[31] O
*I *419:io_oeb[31] O *D control_system
*CAP
1 io_oeb[31] 0.0766278
2 *419:io_oeb[31] 9.69104e-05
3 *63:13 0.0766278
4 *63:11 0.0107867
5 *63:9 0.0108836
6 *63:11 *68:10 0.00177172
7 *63:11 *68:12 0.0113221
*RES
1 *419:io_oeb[31] *63:9 9.646 
2 *63:9 *63:11 115.14 
3 *63:11 *63:13 4.5 
4 *63:13 io_oeb[31] 444.79 
*END

*D_NET *64 0.213974
*CONN
*P io_oeb[32] O
*I *419:io_oeb[32] O *D control_system
*CAP
1 io_oeb[32] 0.0816997
2 *419:io_oeb[32] 0.000373061
3 *64:11 0.0816997
4 *64:9 0.018511
5 *64:7 0.018884
6 *64:7 *72:7 5.47889e-05
7 *64:9 *72:9 0
8 *64:9 *79:9 0
9 *64:9 *314:13 0.00817294
10 *34:9 *64:9 0
11 *39:9 *64:9 0.00400724
12 *42:9 *64:9 0.000571288
13 *50:9 *64:9 0
*RES
1 *419:io_oeb[32] *64:7 6.818 
2 *64:7 *64:9 146.148 
3 *64:9 *64:11 4.5 
4 *64:11 io_oeb[32] 473.974 
*END

*D_NET *65 0.150903
*CONN
*P io_oeb[33] O
*I *419:io_oeb[33] O *D control_system
*CAP
1 io_oeb[33] 0.0575838
2 *419:io_oeb[33] 0.0178677
3 *65:7 0.0575838
4 *65:5 0.0178677
*RES
1 *419:io_oeb[33] *65:5 122.398 
2 *65:5 *65:7 4.5 
3 *65:7 io_oeb[33] 410.742 
*END

*D_NET *66 0.177085
*CONN
*P io_oeb[34] O
*I *419:io_oeb[34] O *D control_system
*CAP
1 io_oeb[34] 0.0622469
2 *419:io_oeb[34] 0.0262953
3 *66:7 0.0622469
4 *66:5 0.0262953
*RES
1 *419:io_oeb[34] *66:5 179.854 
2 *66:5 *66:7 4.5 
3 *66:7 io_oeb[34] 443.574 
*END

*D_NET *67 0.234796
*CONN
*P io_oeb[35] O
*I *419:io_oeb[35] O *D control_system
*CAP
1 io_oeb[35] 0.0604307
2 *419:io_oeb[35] 0.00123229
3 *67:14 0.0604307
4 *67:12 0.0473046
5 *67:10 0.0485369
6 *67:12 *69:5 0.0168604
*RES
1 *419:io_oeb[35] *67:10 17.892 
2 *67:10 *67:12 336.376 
3 *67:12 *67:14 4.5 
4 *67:14 io_oeb[35] 430.502 
*END

*D_NET *68 0.238641
*CONN
*P io_oeb[36] O
*I *419:io_oeb[36] O *D control_system
*CAP
1 io_oeb[36] 0.0623019
2 *419:io_oeb[36] 0.000678268
3 *68:14 0.0623019
4 *68:12 0.0497936
5 *68:10 0.0504719
6 *63:11 *68:10 0.00177172
7 *63:11 *68:12 0.0113221
*RES
1 *419:io_oeb[36] *68:10 17.892 
2 *68:10 *68:12 393.832 
3 *68:12 *68:14 4.5 
4 *68:14 io_oeb[36] 444.182 
*END

*D_NET *69 0.240648
*CONN
*P io_oeb[37] O
*I *419:io_oeb[37] O *D control_system
*CAP
1 io_oeb[37] 0.0604721
2 *419:io_oeb[37] 0.0514215
3 *69:7 0.0604721
4 *69:5 0.0514215
5 *67:12 *69:5 0.0168604
*RES
1 *419:io_oeb[37] *69:5 352.222 
2 *69:5 *69:7 4.5 
3 *69:7 io_oeb[37] 430.806 
*END

*D_NET *70 0.193866
*CONN
*P io_oeb[3] O
*I *419:io_oeb[3] O *D control_system
*CAP
1 io_oeb[3] 0.0557056
2 *419:io_oeb[3] 0
3 *70:10 0.0557056
4 *70:8 0.0245723
5 *70:6 0.0245723
6 *70:8 *71:15 0.00353692
7 *70:8 *71:17 0.0297731
*RES
1 *419:io_oeb[3] *70:6 9 
2 *70:6 *70:8 264.404 
3 *70:8 *70:10 4.5 
4 *70:10 io_oeb[3] 396.302 
*END

*D_NET *71 0.179325
*CONN
*P io_oeb[4] O
*I *419:io_oeb[4] O *D control_system
*CAP
1 io_oeb[4] 0.0556437
2 *419:io_oeb[4] 0.000865005
3 *71:19 0.0556437
4 *71:17 0.0164989
5 *71:15 0.0173639
6 *70:8 *71:15 0.00353692
7 *70:8 *71:17 0.0297731
*RES
1 *419:io_oeb[4] *71:15 19.222 
2 *71:15 *71:17 202.16 
3 *71:17 *71:19 4.5 
4 *71:19 io_oeb[4] 395.846 
*END

*D_NET *72 0.191564
*CONN
*P io_oeb[5] O
*I *419:io_oeb[5] O *D control_system
*CAP
1 io_oeb[5] 0.0465927
2 *419:io_oeb[5] 0.000561257
3 *72:11 0.0465927
4 *72:9 0.00195479
5 *72:7 0.00251605
6 *72:9 *79:9 0.00359931
7 *72:9 *114:9 0.00377989
8 *34:9 *72:9 0.0462619
9 *35:9 *72:9 0.0396503
10 *64:7 *72:7 5.47889e-05
11 *64:9 *72:9 0
*RES
1 *419:io_oeb[5] *72:7 8.186 
2 *72:7 *72:9 131.252 
3 *72:9 *72:11 4.5 
4 *72:11 io_oeb[5] 332.614 
*END

*D_NET *73 0.106261
*CONN
*P io_oeb[6] O
*I *419:io_oeb[6] O *D control_system
*CAP
1 io_oeb[6] 0.0465932
2 *419:io_oeb[6] 0.00217114
3 *73:11 0.0487644
4 *35:9 *73:11 0.00873251
*RES
1 *419:io_oeb[6] *73:11 34.042 
2 *73:11 io_oeb[6] 332.31 
*END

*D_NET *74 0.11048
*CONN
*P io_oeb[7] O
*I *419:io_oeb[7] O *D control_system
*CAP
1 io_oeb[7] 0.0010401
2 *419:io_oeb[7] 0.0462148
3 *74:11 0.0057086
4 *74:5 0.0508833
5 *74:11 *76:9 0.0030487
6 *40:13 *74:11 0.00137763
7 *41:13 *74:11 0.00220646
*RES
1 *419:io_oeb[7] *74:5 329.422 
2 *74:5 *74:11 46.468 
3 *74:11 io_oeb[7] 6.878 
*END

*D_NET *75 0.104177
*CONN
*P io_oeb[8] O
*I *419:io_oeb[8] O *D control_system
*CAP
1 io_oeb[8] 0.0514629
2 *419:io_oeb[8] 0.000525474
3 *75:7 0.0519884
4 *54:7 *75:7 0.000106512
5 *54:9 io_oeb[8] 9.34286e-05
*RES
1 *419:io_oeb[8] *75:7 8.338 
2 *75:7 io_oeb[8] 366.206 
*END

*D_NET *76 0.142043
*CONN
*P io_oeb[9] O
*I *419:io_oeb[9] O *D control_system
*CAP
1 io_oeb[9] 0.00106596
2 *419:io_oeb[9] 0.046186
3 *76:9 0.0164987
4 *76:7 0.0154327
5 *76:5 0.046186
6 *40:13 *76:9 0.00254548
7 *41:13 *76:9 0.0110794
8 *74:11 *76:9 0.0030487
*RES
1 *419:io_oeb[9] *76:5 329.27 
2 *76:5 *76:7 4.5 
3 *76:7 *76:9 114.988 
4 *76:9 io_oeb[9] 11.53 
*END

*D_NET *78 0.134369
*CONN
*P io_out[10] O
*I *419:salida[2] O *D control_system
*CAP
1 io_out[10] 0.053554
2 *419:salida[2] 0.0136303
3 *78:7 0.053554
4 *78:5 0.0136303
*RES
1 *419:salida[2] *78:5 93.518 
2 *78:5 *78:7 4.5 
3 *78:7 io_out[10] 380.798 
*END

*D_NET *79 0.203051
*CONN
*P io_out[11] O
*I *419:salida[3] O *D control_system
*CAP
1 io_out[11] 0.0466758
2 *419:salida[3] 0.000488984
3 *79:11 0.0466758
4 *79:9 0.00973081
5 *79:7 0.0102198
6 *79:9 *114:9 0.00706443
7 *419:dir *79:7 0.000122802
8 *42:9 *79:9 0.0784732
9 *64:9 *79:9 0
10 *72:9 *79:9 0.00359931
*RES
1 *419:salida[3] *79:7 7.882 
2 *79:7 *79:9 190.988 
3 *79:9 *79:11 4.5 
4 *79:11 io_out[11] 332.918 
*END

*D_NET *112 0.124207
*CONN
*P io_out[7] O
*I *419:clk_s O *D control_system
*CAP
1 io_out[7] 0.0572143
2 *419:clk_s 0.00166401
3 *112:11 0.0588783
4 *112:11 *419:rst 8.23053e-05
5 *35:9 *112:11 0.0063681
*RES
1 *419:clk_s *112:11 28.266 
2 *112:11 io_out[7] 332.31 
*END

*D_NET *113 0.114508
*CONN
*P io_out[8] O
*I *419:salida[0] O *D control_system
*CAP
1 io_out[8] 0.0465932
2 *419:salida[0] 0.00337053