*SPEF "ieee 1481-1999"
*DESIGN "user_project_wrapper"
*DATE "11:11:11 Fri 11 11, 1111"
*VENDOR "OpenRCX"
*PROGRAM "Parallel Extraction"
*VERSION "1.0"
*DESIGN_FLOW "NAME_SCOPE LOCAL" "PIN_CAP NONE"
*DIVIDER /
*DELIMITER :
*BUS_DELIMITER []
*T_UNIT 1 NS
*C_UNIT 1 PF
*R_UNIT 1 OHM
*L_UNIT 1 HENRY

*NAME_MAP
*1 io_in[0]
*2 io_in[10]
*3 io_in[11]
*4 io_in[12]
*5 io_in[13]
*6 io_in[14]
*7 io_in[15]
*8 io_in[16]
*9 io_in[17]
*10 io_in[18]
*11 io_in[19]
*12 io_in[1]
*13 io_in[20]
*14 io_in[21]
*15 io_in[22]
*16 io_in[23]
*17 io_in[24]
*18 io_in[25]
*19 io_in[26]
*20 io_in[27]
*21 io_in[28]
*22 io_in[29]
*23 io_in[2]
*24 io_in[30]
*25 io_in[31]
*26 io_in[32]
*27 io_in[33]
*28 io_in[34]
*29 io_in[35]
*30 io_in[36]
*31 io_in[37]
*32 io_in[3]
*33 io_in[4]
*34 io_in[5]
*35 io_in[6]
*36 io_in[7]
*37 io_in[8]
*38 io_in[9]
*39 io_oeb[0]
*40 io_oeb[10]
*41 io_oeb[11]
*42 io_oeb[12]
*43 io_oeb[13]
*44 io_oeb[14]
*45 io_oeb[15]
*46 io_oeb[16]
*47 io_oeb[17]
*48 io_oeb[18]
*49 io_oeb[19]
*50 io_oeb[1]
*51 io_oeb[20]
*52 io_oeb[21]
*53 io_oeb[22]
*54 io_oeb[23]
*55 io_oeb[24]
*56 io_oeb[25]
*57 io_oeb[26]
*58 io_oeb[27]
*59 io_oeb[28]
*60 io_oeb[29]
*61 io_oeb[2]
*62 io_oeb[30]
*63 io_oeb[31]
*64 io_oeb[32]
*65 io_oeb[33]
*66 io_oeb[34]
*67 io_oeb[35]
*68 io_oeb[36]
*69 io_oeb[37]
*70 io_oeb[3]
*71 io_oeb[4]
*72 io_oeb[5]
*73 io_oeb[6]
*74 io_oeb[7]
*75 io_oeb[8]
*76 io_oeb[9]
*77 io_out[0]
*78 io_out[10]
*79 io_out[11]
*80 io_out[12]
*81 io_out[13]
*82 io_out[14]
*83 io_out[15]
*84 io_out[16]
*85 io_out[17]
*86 io_out[18]
*87 io_out[19]
*88 io_out[1]
*89 io_out[20]
*90 io_out[21]
*91 io_out[22]
*92 io_out[23]
*93 io_out[24]
*94 io_out[25]
*95 io_out[26]
*96 io_out[27]
*97 io_out[28]
*98 io_out[29]
*99 io_out[2]
*100 io_out[30]
*101 io_out[31]
*102 io_out[32]
*103 io_out[33]
*104 io_out[34]
*105 io_out[35]
*106 io_out[36]
*107 io_out[37]
*108 io_out[3]
*109 io_out[4]
*110 io_out[5]
*111 io_out[6]
*112 io_out[7]
*113 io_out[8]
*114 io_out[9]
*115 la_data_in[0]
*116 la_data_in[10]
*117 la_data_in[11]
*118 la_data_in[12]
*119 la_data_in[13]
*120 la_data_in[14]
*121 la_data_in[15]
*122 la_data_in[16]
*123 la_data_in[17]
*124 la_data_in[18]
*125 la_data_in[19]
*126 la_data_in[1]
*127 la_data_in[20]
*128 la_data_in[21]
*129 la_data_in[22]
*130 la_data_in[23]
*131 la_data_in[24]
*132 la_data_in[25]
*133 la_data_in[26]
*134 la_data_in[27]
*135 la_data_in[28]
*136 la_data_in[29]
*137 la_data_in[2]
*138 la_data_in[30]
*139 la_data_in[31]
*140 la_data_in[32]
*141 la_data_in[33]
*142 la_data_in[34]
*143 la_data_in[35]
*144 la_data_in[36]
*145 la_data_in[37]
*146 la_data_in[38]
*147 la_data_in[39]
*148 la_data_in[3]
*149 la_data_in[40]
*150 la_data_in[41]
*151 la_data_in[42]
*152 la_data_in[43]
*153 la_data_in[44]
*154 la_data_in[45]
*155 la_data_in[46]
*156 la_data_in[47]
*157 la_data_in[48]
*158 la_data_in[49]
*159 la_data_in[4]
*160 la_data_in[50]
*161 la_data_in[51]
*162 la_data_in[52]
*163 la_data_in[53]
*164 la_data_in[54]
*165 la_data_in[55]
*166 la_data_in[56]
*167 la_data_in[57]
*168 la_data_in[58]
*169 la_data_in[59]
*170 la_data_in[5]
*171 la_data_in[60]
*172 la_data_in[61]
*173 la_data_in[62]
*174 la_data_in[63]
*175 la_data_in[6]
*176 la_data_in[7]
*177 la_data_in[8]
*178 la_data_in[9]
*179 la_data_out[0]
*180 la_data_out[10]
*181 la_data_out[11]
*182 la_data_out[12]
*183 la_data_out[13]
*184 la_data_out[14]
*185 la_data_out[15]
*186 la_data_out[16]
*187 la_data_out[17]
*188 la_data_out[18]
*189 la_data_out[19]
*190 la_data_out[1]
*191 la_data_out[20]
*192 la_data_out[21]
*193 la_data_out[22]
*194 la_data_out[23]
*195 la_data_out[24]
*196 la_data_out[25]
*197 la_data_out[26]
*198 la_data_out[27]
*199 la_data_out[28]
*200 la_data_out[29]
*201 la_data_out[2]
*202 la_data_out[30]
*203 la_data_out[31]
*204 la_data_out[32]
*205 la_data_out[33]
*206 la_data_out[34]
*207 la_data_out[35]
*208 la_data_out[36]
*209 la_data_out[37]
*210 la_data_out[38]
*211 la_data_out[39]
*212 la_data_out[3]
*213 la_data_out[40]
*214 la_data_out[41]
*215 la_data_out[42]
*216 la_data_out[43]
*217 la_data_out[44]
*218 la_data_out[45]
*219 la_data_out[46]
*220 la_data_out[47]
*221 la_data_out[48]
*222 la_data_out[49]
*223 la_data_out[4]
*224 la_data_out[50]
*225 la_data_out[51]
*226 la_data_out[52]
*227 la_data_out[53]
*228 la_data_out[54]
*229 la_data_out[55]
*230 la_data_out[56]
*231 la_data_out[57]
*232 la_data_out[58]
*233 la_data_out[59]
*234 la_data_out[5]
*235 la_data_out[60]
*236 la_data_out[61]
*237 la_data_out[62]
*238 la_data_out[63]
*239 la_data_out[6]
*240 la_data_out[7]
*241 la_data_out[8]
*242 la_data_out[9]
*243 la_oenb[0]
*244 la_oenb[10]
*245 la_oenb[11]
*246 la_oenb[12]
*247 la_oenb[13]
*248 la_oenb[14]
*249 la_oenb[15]
*250 la_oenb[16]
*251 la_oenb[17]
*252 la_oenb[18]
*253 la_oenb[19]
*254 la_oenb[1]
*255 la_oenb[20]
*256 la_oenb[21]
*257 la_oenb[22]
*258 la_oenb[23]
*259 la_oenb[24]
*260 la_oenb[25]
*261 la_oenb[26]
*262 la_oenb[27]
*263 la_oenb[28]
*264 la_oenb[29]
*265 la_oenb[2]
*266 la_oenb[30]
*267 la_oenb[31]
*268 la_oenb[32]
*269 la_oenb[33]
*270 la_oenb[34]
*271 la_oenb[35]
*272 la_oenb[36]
*273 la_oenb[37]
*274 la_oenb[38]
*275 la_oenb[39]
*276 la_oenb[3]
*277 la_oenb[40]
*278 la_oenb[41]
*279 la_oenb[42]
*280 la_oenb[43]
*281 la_oenb[44]
*282 la_oenb[45]
*283 la_oenb[46]
*284 la_oenb[47]
*285 la_oenb[48]
*286 la_oenb[49]
*287 la_oenb[4]
*288 la_oenb[50]
*289 la_oenb[51]
*290 la_oenb[52]
*291 la_oenb[53]
*292 la_oenb[54]
*293 la_oenb[55]
*294 la_oenb[56]
*295 la_oenb[57]
*296 la_oenb[58]
*297 la_oenb[59]
*298 la_oenb[5]
*299 la_oenb[60]
*300 la_oenb[61]
*301 la_oenb[62]
*302 la_oenb[63]
*303 la_oenb[6]
*304 la_oenb[7]
*305 la_oenb[8]
*306 la_oenb[9]
*307 user_clock2
*308 user_irq[0]
*309 user_irq[1]
*310 user_irq[2]
*313 wb_clk_i
*314 wb_rst_i
*315 wbs_ack_o
*316 wbs_adr_i[0]
*317 wbs_adr_i[10]
*318 wbs_adr_i[11]
*319 wbs_adr_i[12]
*320 wbs_adr_i[13]
*321 wbs_adr_i[14]
*322 wbs_adr_i[15]
*323 wbs_adr_i[16]
*324 wbs_adr_i[17]
*325 wbs_adr_i[18]
*326 wbs_adr_i[19]
*327 wbs_adr_i[1]
*328 wbs_adr_i[20]
*329 wbs_adr_i[21]
*330 wbs_adr_i[22]
*331 wbs_adr_i[23]
*332 wbs_adr_i[24]
*333 wbs_adr_i[25]
*334 wbs_adr_i[26]
*335 wbs_adr_i[27]
*336 wbs_adr_i[28]
*337 wbs_adr_i[29]
*338 wbs_adr_i[2]
*339 wbs_adr_i[30]
*340 wbs_adr_i[31]
*341 wbs_adr_i[3]
*342 wbs_adr_i[4]
*343 wbs_adr_i[5]
*344 wbs_adr_i[6]
*345 wbs_adr_i[7]
*346 wbs_adr_i[8]
*347 wbs_adr_i[9]
*348 wbs_cyc_i
*349 wbs_dat_i[0]
*350 wbs_dat_i[10]
*351 wbs_dat_i[11]
*352 wbs_dat_i[12]
*353 wbs_dat_i[13]
*354 wbs_dat_i[14]
*355 wbs_dat_i[15]
*356 wbs_dat_i[16]
*357 wbs_dat_i[17]
*358 wbs_dat_i[18]
*359 wbs_dat_i[19]
*360 wbs_dat_i[1]
*361 wbs_dat_i[20]
*362 wbs_dat_i[21]
*363 wbs_dat_i[22]
*364 wbs_dat_i[23]
*365 wbs_dat_i[24]
*366 wbs_dat_i[25]
*367 wbs_dat_i[26]
*368 wbs_dat_i[27]
*369 wbs_dat_i[28]
*370 wbs_dat_i[29]
*371 wbs_dat_i[2]
*372 wbs_dat_i[30]
*373 wbs_dat_i[31]
*374 wbs_dat_i[3]
*375 wbs_dat_i[4]
*376 wbs_dat_i[5]
*377 wbs_dat_i[6]
*378 wbs_dat_i[7]
*379 wbs_dat_i[8]
*380 wbs_dat_i[9]
*381 wbs_dat_o[0]
*382 wbs_dat_o[10]
*383 wbs_dat_o[11]
*384 wbs_dat_o[12]
*385 wbs_dat_o[13]
*386 wbs_dat_o[14]
*387 wbs_dat_o[15]
*388 wbs_dat_o[16]
*389 wbs_dat_o[17]
*390 wbs_dat_o[18]
*391 wbs_dat_o[19]
*392 wbs_dat_o[1]
*393 wbs_dat_o[20]
*394 wbs_dat_o[21]
*395 wbs_dat_o[22]
*396 wbs_dat_o[23]
*397 wbs_dat_o[24]
*398 wbs_dat_o[25]
*399 wbs_dat_o[26]
*400 wbs_dat_o[27]
*401 wbs_dat_o[28]
*402 wbs_dat_o[29]
*403 wbs_dat_o[2]
*404 wbs_dat_o[30]
*405 wbs_dat_o[31]
*406 wbs_dat_o[3]
*407 wbs_dat_o[4]
*408 wbs_dat_o[5]
*409 wbs_dat_o[6]
*410 wbs_dat_o[7]
*411 wbs_dat_o[8]
*412 wbs_dat_o[9]
*413 wbs_sel_i[0]
*414 wbs_sel_i[1]
*415 wbs_sel_i[2]
*416 wbs_sel_i[3]
*417 wbs_stb_i
*418 wbs_we_i
*419 control_system

*PORTS
io_in[0] I
io_in[10] I
io_in[11] I
io_in[12] I
io_in[13] I
io_in[14] I
io_in[15] I
io_in[16] I
io_in[17] I
io_in[18] I
io_in[19] I
io_in[1] I
io_in[20] I
io_in[21] I
io_in[22] I
io_in[23] I
io_in[24] I
io_in[25] I
io_in[26] I
io_in[27] I
io_in[28] I
io_in[29] I
io_in[2] I
io_in[30] I
io_in[31] I
io_in[32] I
io_in[33] I
io_in[34] I
io_in[35] I
io_in[36] I
io_in[37] I
io_in[3] I
io_in[4] I
io_in[5] I
io_in[6] I
io_in[7] I
io_in[8] I
io_in[9] I
io_oeb[0] O
io_oeb[10] O
io_oeb[11] O
io_oeb[12] O
io_oeb[13] O
io_oeb[14] O
io_oeb[15] O
io_oeb[16] O
io_oeb[17] O
io_oeb[18] O
io_oeb[19] O
io_oeb[1] O
io_oeb[20] O
io_oeb[21] O
io_oeb[22] O
io_oeb[23] O
io_oeb[24] O
io_oeb[25] O
io_oeb[26] O
io_oeb[27] O
io_oeb[28] O
io_oeb[29] O
io_oeb[2] O
io_oeb[30] O
io_oeb[31] O
io_oeb[32] O
io_oeb[33] O
io_oeb[34] O
io_oeb[35] O
io_oeb[36] O
io_oeb[37] O
io_oeb[3] O
io_oeb[4] O
io_oeb[5] O
io_oeb[6] O
io_oeb[7] O
io_oeb[8] O
io_oeb[9] O
io_out[0] O
io_out[10] O
io_out[11] O
io_out[12] O
io_out[13] O
io_out[14] O
io_out[15] O
io_out[16] O
io_out[17] O
io_out[18] O
io_out[19] O
io_out[1] O
io_out[20] O
io_out[21] O
io_out[22] O
io_out[23] O
io_out[24] O
io_out[25] O
io_out[26] O
io_out[27] O
io_out[28] O
io_out[29] O
io_out[2] O
io_out[30] O
io_out[31] O
io_out[32] O
io_out[33] O
io_out[34] O
io_out[35] O
io_out[36] O
io_out[37] O
io_out[3] O
io_out[4] O
io_out[5] O
io_out[6] O
io_out[7] O
io_out[8] O
io_out[9] O
la_data_in[0] I
la_data_in[10] I
la_data_in[11] I
la_data_in[12] I
la_data_in[13] I
la_data_in[14] I
la_data_in[15] I
la_data_in[16] I
la_data_in[17] I
la_data_in[18] I
la_data_in[19] I
la_data_in[1] I
la_data_in[20] I
la_data_in[21] I
la_data_in[22] I
la_data_in[23] I
la_data_in[24] I
la_data_in[25] I
la_data_in[26] I
la_data_in[27] I
la_data_in[28] I
la_data_in[29] I
la_data_in[2] I
la_data_in[30] I
la_data_in[31] I
la_data_in[32] I
la_data_in[33] I
la_data_in[34] I
la_data_in[35] I
la_data_in[36] I
la_data_in[37] I
la_data_in[38] I
la_data_in[39] I
la_data_in[3] I
la_data_in[40] I
la_data_in[41] I
la_data_in[42] I
la_data_in[43] I
la_data_in[44] I
la_data_in[45] I
la_data_in[46] I
la_data_in[47] I
la_data_in[48] I
la_data_in[49] I
la_data_in[4] I
la_data_in[50] I
la_data_in[51] I
la_data_in[52] I
la_data_in[53] I
la_data_in[54] I
la_data_in[55] I
la_data_in[56] I
la_data_in[57] I
la_data_in[58] I
la_data_in[59] I
la_data_in[5] I
la_data_in[60] I
la_data_in[61] I
la_data_in[62] I
la_data_in[63] I
la_data_in[6] I
la_data_in[7] I
la_data_in[8] I
la_data_in[9] I
la_data_out[0] O
la_data_out[10] O
la_data_out[11] O
la_data_out[12] O
la_data_out[13] O
la_data_out[14] O
la_data_out[15] O
la_data_out[16] O
la_data_out[17] O
la_data_out[18] O
la_data_out[19] O
la_data_out[1] O
la_data_out[20] O
la_data_out[21] O
la_data_out[22] O
la_data_out[23] O
la_data_out[24] O
la_data_out[25] O
la_data_out[26] O
la_data_out[27] O
la_data_out[28] O
la_data_out[29] O
la_data_out[2] O
la_data_out[30] O
la_data_out[31] O
la_data_out[32] O
la_data_out[33] O
la_data_out[34] O
la_data_out[35] O
la_data_out[36] O
la_data_out[37] O
la_data_out[38] O
la_data_out[39] O
la_data_out[3] O
la_data_out[40] O
la_data_out[41] O
la_data_out[42] O
la_data_out[43] O
la_data_out[44] O
la_data_out[45] O
la_data_out[46] O
la_data_out[47] O
la_data_out[48] O
la_data_out[49] O
la_data_out[4] O
la_data_out[50] O
la_data_out[51] O
la_data_out[52] O
la_data_out[53] O
la_data_out[54] O
la_data_out[55] O
la_data_out[56] O
la_data_out[57] O
la_data_out[58] O
la_data_out[59] O
la_data_out[5] O
la_data_out[60] O
la_data_out[61] O
la_data_out[62] O
la_data_out[63] O
la_data_out[6] O
la_data_out[7] O
la_data_out[8] O
la_data_out[9] O
la_oenb[0] I
la_oenb[10] I
la_oenb[11] I
la_oenb[12] I
la_oenb[13] I
la_oenb[14] I
la_oenb[15] I
la_oenb[16] I
la_oenb[17] I
la_oenb[18] I
la_oenb[19] I
la_oenb[1] I
la_oenb[20] I
la_oenb[21] I
la_oenb[22] I
la_oenb[23] I
la_oenb[24] I
la_oenb[25] I
la_oenb[26] I
la_oenb[27] I
la_oenb[28] I
la_oenb[29] I
la_oenb[2] I
la_oenb[30] I
la_oenb[31] I
la_oenb[32] I
la_oenb[33] I
la_oenb[34] I
la_oenb[35] I
la_oenb[36] I
la_oenb[37] I
la_oenb[38] I
la_oenb[39] I
la_oenb[3] I
la_oenb[40] I
la_oenb[41] I
la_oenb[42] I
la_oenb[43] I
la_oenb[44] I
la_oenb[45] I
la_oenb[46] I
la_oenb[47] I
la_oenb[48] I
la_oenb[49] I
la_oenb[4] I
la_oenb[50] I
la_oenb[51] I
la_oenb[52] I
la_oenb[53] I
la_oenb[54] I
la_oenb[55] I
la_oenb[56] I
la_oenb[57] I
la_oenb[58] I
la_oenb[59] I
la_oenb[5] I
la_oenb[60] I
la_oenb[61] I
la_oenb[62] I
la_oenb[63] I
la_oenb[6] I
la_oenb[7] I
la_oenb[8] I
la_oenb[9] I
user_clock2 I
user_irq[0] O
user_irq[1] O
user_irq[2] O
wb_clk_i I
wb_rst_i I
wbs_ack_o O
wbs_adr_i[0] I
wbs_adr_i[10] I
wbs_adr_i[11] I
wbs_adr_i[12] I
wbs_adr_i[13] I
wbs_adr_i[14] I
wbs_adr_i[15] I
wbs_adr_i[16] I
wbs_adr_i[17] I
wbs_adr_i[18] I
wbs_adr_i[19] I
wbs_adr_i[1] I
wbs_adr_i[20] I
wbs_adr_i[21] I
wbs_adr_i[22] I
wbs_adr_i[23] I
wbs_adr_i[24] I
wbs_adr_i[25] I
wbs_adr_i[26] I
wbs_adr_i[27] I
wbs_adr_i[28] I
wbs_adr_i[29] I
wbs_adr_i[2] I
wbs_adr_i[30] I
wbs_adr_i[31] I
wbs_adr_i[3] I
wbs_adr_i[4] I
wbs_adr_i[5] I
wbs_adr_i[6] I
wbs_adr_i[7] I
wbs_adr_i[8] I
wbs_adr_i[9] I
wbs_cyc_i I
wbs_dat_i[0] I
wbs_dat_i[10] I
wbs_dat_i[11] I
wbs_dat_i[12] I
wbs_dat_i[13] I
wbs_dat_i[14] I
wbs_dat_i[15] I
wbs_dat_i[16] I
wbs_dat_i[17] I
wbs_dat_i[18] I
wbs_dat_i[19] I
wbs_dat_i[1] I
wbs_dat_i[20] I
wbs_dat_i[21] I
wbs_dat_i[22] I
wbs_dat_i[23] I
wbs_dat_i[24] I
wbs_dat_i[25] I
wbs_dat_i[26] I
wbs_dat_i[27] I
wbs_dat_i[28] I
wbs_dat_i[29] I
wbs_dat_i[2] I
wbs_dat_i[30] I
wbs_dat_i[31] I
wbs_dat_i[3] I
wbs_dat_i[4] I
wbs_dat_i[5] I
wbs_dat_i[6] I
wbs_dat_i[7] I
wbs_dat_i[8] I
wbs_dat_i[9] I
wbs_dat_o[0] O
wbs_dat_o[10] O
wbs_dat_o[11] O
wbs_dat_o[12] O
wbs_dat_o[13] O
wbs_dat_o[14] O
wbs_dat_o[15] O
wbs_dat_o[16] O
wbs_dat_o[17] O
wbs_dat_o[18] O
wbs_dat_o[19] O
wbs_dat_o[1] O
wbs_dat_o[20] O
wbs_dat_o[21] O
wbs_dat_o[22] O
wbs_dat_o[23] O
wbs_dat_o[24] O
wbs_dat_o[25] O
wbs_dat_o[26] O
wbs_dat_o[27] O
wbs_dat_o[28] O
wbs_dat_o[29] O
wbs_dat_o[2] O
wbs_dat_o[30] O
wbs_dat_o[31] O
wbs_dat_o[3] O
wbs_dat_o[4] O
wbs_dat_o[5] O
wbs_dat_o[6] O
wbs_dat_o[7] O
wbs_dat_o[8] O
wbs_dat_o[9] O
wbs_sel_i[0] I
wbs_sel_i[1] I
wbs_sel_i[2] I
wbs_sel_i[3] I
wbs_stb_i I
wbs_we_i I

*D_NET *34 0.245437
*CONN
*P io_in[5] I
*I *419:enable I *D control_system
*CAP
1 io_in[5] 0.0517447
2 *419:enable 0.000522102
3 *34:9 0.00567381
4 *34:7 0.00515171
5 *34:5 0.0517447
6 *419:enable *114:7 0.000136542
7 *34:9 *45:9 0.000979673
8 *34:9 *50:9 0.0686427
9 *34:9 *64:9 0
10 *34:9 *72:9 0.060841
*RES
1 io_in[5] *34:5 455.364 
2 *34:5 *34:7 4.5 
3 *34:7 *34:9 201.448 
4 *34:9 *419:enable 9.336 
*END

*D_NET *35 0.187856
*CONN
*P io_in[6] I
*I *419:dir I *D control_system
*CAP
1 io_in[6] 0.0516995
2 *419:dir 0.000601981
3 *35:9 0.00495363
4 *35:7 0.00435165
5 *35:5 0.0516995
6 *419:dir *79:7 0.000131326
7 *35:9 *72:9 0.0521433
8 *35:9 *73:11 0.0114861
9 *35:9 *112:11 0.00837427
10 *35:9 *113:9 0.000875069
11 *35:9 *114:9 0.00154016
*RES
1 io_in[6] *35:5 454.948 
2 *35:5 *35:7 4.5 
3 *35:7 *35:9 130.312 
4 *35:9 *419:dir 9.752 
*END

*D_NET *39 0.333644
*CONN
*P io_oeb[0] O
*I *419:io_oeb[0] O *D control_system
*CAP
1 io_oeb[0] 0.0517899
2 *419:io_oeb[0] 0.000539697
3 *39:11 0.0517899
4 *39:9 0.0298818
5 *39:7 0.0304215
6 *39:9 *50:9 0.1649
7 *39:9 *64:9 0.00432091
*RES
1 *419:io_oeb[0] *39:7 8.92 
2 *39:7 *39:9 485.368 
3 *39:9 *39:11 4.5 
4 *39:11 io_oeb[0] 455.78 
*END

*D_NET *40 0.438508
*CONN
*P io_oeb[10] O
*I *419:io_oeb[10] O *D control_system
*CAP
1 io_oeb[10] 0.00114566
2 *419:io_oeb[10] 0.000807824
3 *40:13 0.0223841
4 *40:11 0.0212385
5 *40:9 0.015009
6 *40:7 0.0158169
7 *40:9 *41:9 0.19228
8 *40:9 *46:9 0.102784
9 *40:9 *48:9 0.00129433
10 *40:9 *62:9 0.010919
11 *40:13 *41:13 0.0499162
12 *40:13 *74:9 0.00176492
13 *40:13 *76:9 0.00314709
*RES
1 *419:io_oeb[10] *40:7 9.752 
2 *40:7 *40:9 509.496 
3 *40:9 *40:11 4.5 
4 *40:11 *40:13 306.28 
5 *40:13 io_oeb[10] 13.704 
*END

*D_NET *41 0.378451
*CONN
*P io_oeb[11] O
*I *419:io_oeb[11] O *D control_system
*CAP
1 io_oeb[11] 0.00119088
2 *419:io_oeb[11] 0.000543665
3 *41:13 0.0311052
4 *41:11 0.0299143
5 *41:9 0.0282675
6 *41:7 0.0288111
7 *41:7 *62:7 0.000129673
8 *41:13 *74:9 0.00282676
9 *41:13 *76:9 0.0134656
10 *40:9 *41:9 0.19228
11 *40:13 *41:13 0.0499162
*RES
1 *419:io_oeb[11] *41:7 9.544 
2 *41:7 *41:9 482.872 
3 *41:9 *41:11 4.5 
4 *41:11 *41:13 379.496 
5 *41:13 io_oeb[11] 14.12 
*END

*D_NET *42 0.289962
*CONN
*P io_oeb[12] O
*I *419:io_oeb[12] O *D control_system
*CAP
1 io_oeb[12] 0.0518427
2 *419:io_oeb[12] 0.000527481
3 *42:11 0.0518427
4 *42:9 0.0254277
5 *42:7 0.0259551
6 *42:9 *45:9 0.0305483
7 *42:9 *64:9 0.000617653
8 *42:9 *79:9 0.1032
*RES
1 *419:io_oeb[12] *42:7 8.92 
2 *42:7 *42:9 355.784 
3 *42:9 *42:11 4.5 
4 *42:11 io_oeb[12] 455.78 
*END

*D_NET *43 0.202123
*CONN
*P io_oeb[13] O
*I *419:io_oeb[13] O *D control_system
*CAP
1 io_oeb[13] 0.0568563
2 *419:io_oeb[13] 0.0441486
3 *43:7 0.0568563
4 *43:5 0.0441486
5 *43:5 *54:7 0.000113246
*RES
1 *419:io_oeb[13] *43:5 373.412 
2 *43:5 *43:7 4.5 
3 *43:7 io_oeb[13] 498.628 
*END

*D_NET *44 0.223075
*CONN
*P io_oeb[14] O
*I *419:io_oeb[14] O *D control_system
*CAP
1 io_oeb[14] 0.0586197
2 *419:io_oeb[14] 0.0529177
3 *44:7 0.0586197
4 *44:5 0.0529177
*RES
1 *419:io_oeb[14] *44:5 447.044 
2 *44:5 *44:7 4.5 
3 *44:7 io_oeb[14] 514.852 
*END

*D_NET *45 0.275279
*CONN
*P io_oeb[15] O
*I *419:io_oeb[15] O *D control_system
*CAP
1 io_oeb[15] 0.00113656
2 *419:io_oeb[15] 0.000482628
3 *45:13 0.0354972
4 *45:11 0.0343607
5 *45:9 0.064814
6 *45:7 0.0652966
7 *45:7 *50:7 0.000124259
8 *45:9 *79:9 0.000245167
9 *45:9 *314:13 0
10 *45:13 *47:13 0.041794
11 *34:9 *45:9 0.000979673
12 *42:9 *45:9 0.0305483
*RES
1 *419:io_oeb[15] *45:7 8.92 
2 *45:7 *45:9 545.272 
3 *45:9 *45:11 4.5 
4 *45:11 *45:13 353.496 
5 *45:13 io_oeb[15] 14.12 
*END

*D_NET *46 0.283626
*CONN
*P io_oeb[16] O
*I *419:io_oeb[16] O *D control_system
*CAP
1 io_oeb[16] 0.07287
2 *419:io_oeb[16] 0.000692465
3 *46:11 0.07287
4 *46:9 0.0146709
5 *46:7 0.0153633
6 *46:9 *48:9 0.00437503
7 *40:9 *46:9 0.102784
*RES
1 *419:io_oeb[16] *46:7 9.96 
2 *46:7 *46:9 258.44 
3 *46:9 *46:11 4.5 
4 *46:11 io_oeb[16] 613.86 
*END

*D_NET *47 0.192897
*CONN
*P io_oeb[17] O
*I *419:io_oeb[17] O *D control_system
*CAP
1 io_oeb[17] 0.00111232
2 *419:io_oeb[17] 0.00101874
3 *47:13 0.00713642
4 *47:11 0.0060241
5 *47:9 0.0673962
6 *47:7 0.068415
7 *45:13 *47:13 0.041794
*RES
1 *419:io_oeb[17] *47:7 12.04 
2 *47:7 *47:9 567.944 
3 *47:9 *47:11 4.5 
4 *47:11 *47:13 104.728 
5 *47:13 io_oeb[17] 13.912 
*END

*D_NET *48 0.171276
*CONN
*P io_oeb[18] O
*I *419:io_oeb[18] O *D control_system
*CAP
1 io_oeb[18] 0.00118326
2 *419:io_oeb[18] 0.000696317
3 *48:13 0.0690949
4 *48:11 0.0679117
5 *48:9 0.00384174
6 *48:7 0.00453806
7 io_oeb[18] *49:13 0
8 *48:9 *62:9 0.0183404
9 *40:9 *48:9 0.00129433
10 *46:9 *48:9 0.00437503
*RES
1 *419:io_oeb[18] *48:7 10.168 
2 *48:7 *48:9 64.584 
3 *48:9 *48:11 4.5 
4 *48:11 *48:13 606.008 
5 *48:13 io_oeb[18] 18.932 
*END

*D_NET *49 0.156043
*CONN
*P io_oeb[19] O
*I *419:io_oeb[19] O *D control_system
*CAP
1 io_oeb[19] 0.00113656
2 *419:io_oeb[19] 0.000128207
3 *49:13 0.0165316
4 *49:11 0.0153951
5 *49:9 0.0613617
6 *49:7 0.0614899
7 io_oeb[18] *49:13 0
*RES
1 *419:io_oeb[19] *49:7 5.592 
2 *49:7 *49:9 518.024 
3 *49:9 *49:11 4.5 
4 *49:11 *49:13 133.432 
5 *49:13 io_oeb[19] 14.12 
*END

*D_NET *50 0.368118
*CONN
*P io_oeb[1] O
*I *419:io_oeb[1] O *D control_system
*CAP
1 io_oeb[1] 0.0517673
2 *419:io_oeb[1] 0.000526776
3 *50:11 0.0517673
4 *50:9 0.0149315
5 *50:7 0.0154583
6 *50:9 *64:9 0
7 *34:9 *50:9 0.0686427
8 *39:9 *50:9 0.1649
9 *45:7 *50:7 0.000124259
*RES
1 *419:io_oeb[1] *50:7 9.128 
2 *50:7 *50:9 416.936 
3 *50:9 *50:11 4.5 
4 *50:11 io_oeb[1] 455.572 
*END

*D_NET *51 0.189435
*CONN
*P io_oeb[20] O
*I *419:io_oeb[20] O *D control_system
*CAP
1 io_oeb[20] 0.0538224
2 *419:io_oeb[20] 0.000664388
3 *51:11 0.0538224
4 *51:9 0.00915739
5 *51:7 0.00982178
6 *51:9 *52:9 0.062147
*RES
1 *419:io_oeb[20] *51:7 9.544 
2 *51:7 *51:9 156.104 
3 *51:9 *51:11 4.5 
4 *51:11 io_oeb[20] 455.156 
*END

*D_NET *52 0.301847
*CONN
*P io_oeb[21] O
*I *419:io_oeb[21] O *D control_system
*CAP
1 io_oeb[21] 0.0538467
2 *419:io_oeb[21] 0.000619752
3 *52:11 0.0538467
4 *52:9 0.00804577
5 *52:7 0.00866552
6 *52:9 *53:9 0.114675
7 *51:9 *52:9 0.062147
*RES
1 *419:io_oeb[21] *52:7 9.336 
2 *52:7 *52:9 287.768 
3 *52:9 *52:11 4.5 
4 *52:11 io_oeb[21] 455.364 
*END

*D_NET *53 0.406727
*CONN
*P io_oeb[22] O
*I *419:io_oeb[22] O *D control_system
*CAP
1 io_oeb[22] 0.0538709
2 *419:io_oeb[22] 0.000575115
3 *53:11 0.0538709
4 *53:9 0.00827735
5 *53:7 0.00885246
6 *53:9 *54:9 0.166605
7 *52:9 *53:9 0.114675
*RES
1 *419:io_oeb[22] *53:7 9.128 
2 *53:7 *53:9 417.976 
3 *53:9 *53:11 4.5 
4 *53:11 io_oeb[22] 455.572 
*END

*D_NET *54 0.362408
*CONN
*P io_oeb[23] O
*I *419:io_oeb[23] O *D control_system
*CAP
1 io_oeb[23] 0.0538952
2 *419:io_oeb[23] 0.000426491
3 *54:11 0.0538952
4 *54:9 0.0434162
5 *54:7 0.0438427
6 *54:7 *75:7 0.000113246
7 *54:9 io_oeb[8] 0.000100744
8 *43:5 *54:7 0.000113246
9 *53:9 *54:9 0.166605
*RES
1 *419:io_oeb[23] *54:7 8.92 
2 *54:7 *54:9 586.04 
3 *54:9 *54:11 4.5 
4 *54:11 io_oeb[23] 455.78 
*END

*D_NET *55 0.331324
*CONN
*P io_oeb[24] O
*I *419:io_oeb[24] O *D control_system
*CAP
1 io_oeb[24] 0.000790409
2 *419:io_oeb[24] 3.93097e-05
3 *55:14 0.0298836
4 *55:12 0.0290932
5 *55:10 0.0648357
6 *55:8 0.064875
7 *55:14 *56:19 0.141807
*RES
1 *419:io_oeb[24] *55:8 9.15229 
2 *55:8 *55:10 273.401 
3 *55:10 *55:12 4.5 
4 *55:12 *55:14 432.904 
5 *55:14 io_oeb[24] 11.624 
*END

*D_NET *56 0.433898
*CONN
*P io_oeb[25] O
*I *419:io_oeb[25] O *D control_system
*CAP
1 io_oeb[25] 0.000834531
2 *419:io_oeb[25] 0.000338393
3 *56:19 0.0107892
4 *56:17 0.00995468
5 *56:15 0.0647024
6 *56:13 0.0650408
7 *56:19 *57:21 0.137943
8 *56:19 *62:13 0.0024881
9 *55:14 *56:19 0.141807
*RES
1 *419:io_oeb[25] *56:13 11.3881 
2 *56:13 *56:15 273.401 
3 *56:15 *56:17 4.5 
4 *56:17 *56:19 429.16 
5 *56:19 io_oeb[25] 11.832 
*END

*D_NET *57 0.36786
*CONN
*P io_oeb[26] O
*I *419:io_oeb[26] O *D control_system
*CAP
1 io_oeb[26] 0.000878653
2 *419:io_oeb[26] 0.00198606
3 *57:21 0.00721255
4 *57:19 0.0063339
5 *57:17 0.0630682
6 *57:15 0.0650543
7 *57:21 *58:14 0.0739439
8 *57:21 *59:21 0.0114401
9 *56:19 *57:21 0.137943
*RES
1 *419:io_oeb[26] *57:15 16.4341 
2 *57:15 *57:17 267.833 
3 *57:17 *57:19 4.5 
4 *57:19 *57:21 344.519 
5 *57:21 io_oeb[26] 12.04 
*END

*D_NET *58 0.257324
*CONN
*P io_oeb[27] O
*I *419:io_oeb[27] O *D control_system
*CAP
1 io_oeb[27] 0.000922776
2 *419:io_oeb[27] 4.31447e-05
3 *58:14 0.00572833
4 *58:12 0.00480556
5 *58:10 0.0647224
6 *58:8 0.0647655
7 *58:14 *59:21 0.0423925
8 *57:21 *58:14 0.0739439
*RES
1 *419:io_oeb[27] *58:8 9.16714 
2 *58:8 *58:10 273.134 
3 *58:10 *58:12 4.5 
4 *58:12 *58:14 184.663 
5 *58:14 io_oeb[27] 12.248 
*END

*D_NET *59 0.252691
*CONN
*P io_oeb[28] O
*I *419:io_oeb[28] O *D control_system
*CAP
1 io_oeb[28] 0.000966898
2 *419:io_oeb[28] 0.00195431
3 *59:21 0.00783347
4 *59:19 0.00686658
5 *59:17 0.0778948
6 *59:15 0.0798491
7 *59:21 *60:19 0.0234936
8 *57:21 *59:21 0.0114401
9 *58:14 *59:21 0.0423925
*RES
1 *419:io_oeb[28] *59:15 16.1126 
2 *59:15 *59:17 267.655 
3 *59:17 *59:19 4.5 
4 *59:19 *59:21 171.559 
5 *59:21 io_oeb[28] 12.456 
*END

*D_NET *60 0.323581
*CONN
*P io_oeb[29] O
*I *419:io_oeb[29] O *D control_system
*CAP
1 io_oeb[29] 0.00101102
2 *419:io_oeb[29] 0.000418127
3 *60:19 0.00452004
4 *60:17 0.00350902
5 *60:15 0.145106
6 *60:13 0.145524
7 *59:21 *60:19 0.0234936
*RES
1 *419:io_oeb[29] *60:13 11.2449 
2 *60:13 *60:15 273.045 
3 *60:15 *60:17 4.5 
4 *60:17 *60:19 58.838 
5 *60:19 io_oeb[29] 12.664 
*END

*D_NET *61 0.212632
*CONN
*P io_oeb[2] O
*I *419:io_oeb[2] O *D control_system
*CAP
1 io_oeb[2] 0.0571055
2 *419:io_oeb[2] 0.000324127
3 *61:15 0.0571055
4 *61:13 0.0488863
5 *61:11 0.0492104
*RES
1 *419:io_oeb[2] *61:11 11.652 
2 *61:11 *61:13 435.656 
3 *61:13 *61:15 4.5 
4 *61:15 io_oeb[2] 501.124 
*END

*D_NET *62 0.186951
*CONN
*P io_oeb[30] O
*I *419:io_oeb[30] O *D control_system
*CAP
1 io_oeb[30] 0.000790543
2 *419:io_oeb[30] 0.000632938
3 *62:13 0.00955128
4 *62:11 0.00876074
5 *62:9 0.0498357
6 *62:7 0.0504686
7 *62:9 *313:9 0.0350336
8 *40:9 *62:9 0.010919
9 *41:7 *62:7 0.000129673
10 *48:9 *62:9 0.0183404
11 *56:19 *62:13 0.0024881
*RES
1 *419:io_oeb[30] *62:7 9.96 
2 *62:7 *62:9 607.464 
3 *62:9 *62:11 4.5 
4 *62:11 *62:13 73.944 
5 *62:13 io_oeb[30] 11.624 
*END

*D_NET *63 0.215539
*CONN
*P io_oeb[31] O
*I *419:io_oeb[31] O *D control_system
*CAP
1 io_oeb[31] 0.0883167
2 *419:io_oeb[31] 0.000108552
3 *63:13 0.0883167
4 *63:11 0.0121425
5 *63:9 0.0122511
6 *63:11 *68:10 0.00202249
7 *63:11 *68:12 0.0123809
*RES
1 *419:io_oeb[31] *63:9 9.884 
2 *63:9 *63:11 157.56 
3 *63:11 *63:13 4.5 
4 *63:13 io_oeb[31] 608.66 
*END

*D_NET *64 0.246152
*CONN
*P io_oeb[32] O
*I *419:io_oeb[32] O *D control_system
*CAP
1 io_oeb[32] 0.0941866
2 *419:io_oeb[32] 0.000433431
3 *64:11 0.0941866
4 *64:9 0.0204787
5 *64:7 0.0209122
6 *64:7 *72:7 5.51654e-05
7 *64:9 *72:9 0
8 *64:9 *79:9 0
9 *64:9 *314:13 0.0109609
10 *34:9 *64:9 0
11 *39:9 *64:9 0.00432091
12 *42:9 *64:9 0.000617653
13 *50:9 *64:9 0
*RES
1 *419:io_oeb[32] *64:7 7.672 
2 *64:7 *64:9 199.992 
3 *64:9 *64:11 4.5 
4 *64:11 io_oeb[32] 648.596 
*END

*D_NET *65 0.16763
*CONN
*P io_oeb[33] O
*I *419:io_oeb[33] O *D control_system
*CAP
1 io_oeb[33] 0.0639445
2 *419:io_oeb[33] 0.0198704
3 *65:7 0.0639445
4 *65:5 0.0198704
*RES
1 *419:io_oeb[33] *65:5 167.492 
2 *65:5 *65:7 4.5 
3 *65:7 io_oeb[33] 562.068 
*END

*D_NET *66 0.196818
*CONN
*P io_oeb[34] O
*I *419:io_oeb[34] O *D control_system
*CAP
1 io_oeb[34] 0.0691503
2 *419:io_oeb[34] 0.0292586
3 *66:7 0.0691503
4 *66:5 0.0292586
*RES
1 *419:io_oeb[34] *66:5 246.116 
2 *66:5 *66:7 4.5 
3 *66:7 io_oeb[34] 606.996 
*END

*D_NET *67 0.262891
*CONN
*P io_oeb[35] O
*I *419:io_oeb[35] O *D control_system
*CAP
1 io_oeb[35] 0.0671413
2 *419:io_oeb[35] 0.00136863
3 *67:14 0.0671413
4 *67:12 0.0525128
5 *67:10 0.0538814
6 *67:12 *69:5 0.0208453
*RES
1 *419:io_oeb[35] *67:10 21.168 
2 *67:10 *67:12 460.304 
3 *67:12 *67:14 4.5 
4 *67:14 io_oeb[35] 589.108 
*END

*D_NET *68 0.265041
*CONN
*P io_oeb[36] O
*I *419:io_oeb[36] O *D control_system
*CAP
1 io_oeb[36] 0.0691976
2 *419:io_oeb[36] 0.000763463
3 *68:14 0.0691976
4 *68:12 0.0553577
5 *68:10 0.0561211
6 *63:11 *68:10 0.00202249
7 *63:11 *68:12 0.0123809
*RES
1 *419:io_oeb[36] *68:10 21.168 
2 *68:10 *68:12 538.928 
3 *68:12 *68:14 4.5 
4 *68:14 io_oeb[36] 607.828 
*END

*D_NET *69 0.269583
*CONN
*P io_oeb[37] O
*I *419:io_oeb[37] O *D control_system
*CAP
1 io_oeb[37] 0.0671867
2 *419:io_oeb[37] 0.057182
3 *69:7 0.0671867
4 *69:5 0.057182
5 *67:12 *69:5 0.0208453
*RES
1 *419:io_oeb[37] *69:5 481.988 
2 *69:5 *69:7 4.5 
3 *69:7 io_oeb[37] 589.524 
*END

*D_NET *70 0.216728
*CONN
*P io_oeb[3] O
*I *419:io_oeb[3] O *D control_system
*CAP
1 io_oeb[3] 0.0619261
2 *419:io_oeb[3] 0
3 *70:10 0.0619261
4 *70:8 0.0277111
5 *70:6 0.0277111
6 *70:8 *71:15 0.00465215
7 *70:8 *71:17 0.0328015
*RES
1 *419:io_oeb[3] *70:6 9 
2 *70:6 *70:8 361.816 
3 *70:8 *70:10 4.5 
4 *70:10 io_oeb[3] 542.308 
*END

*D_NET *71 0.200608
*CONN
*P io_oeb[4] O
*I *419:io_oeb[4] O *D control_system
*CAP
1 io_oeb[4] 0.0618582
2 *419:io_oeb[4] 0.000975955
3 *71:19 0.0618582
4 *71:17 0.0187429
5 *71:15 0.0197189
6 *70:8 *71:15 0.00465215
7 *70:8 *71:17 0.0328015
*RES
1 *419:io_oeb[4] *71:15 22.988 
2 *71:15 *71:17 276.64 
3 *71:17 *71:19 4.5 
4 *71:19 io_oeb[4] 541.684 
*END

*D_NET *72 0.230968
*CONN
*P io_oeb[5] O
*I *419:io_oeb[5] O *D control_system
*CAP
1 io_oeb[5] 0.0517221
2 *419:io_oeb[5] 0.000651214
3 *72:11 0.0517221
4 *72:9 0.00238063
5 *72:7 0.00303184
6 *72:9 *79:9 0.00410688
7 *72:9 *114:9 0.00431343
8 *34:9 *72:9 0.060841
9 *35:9 *72:9 0.0521433
10 *64:7 *72:7 5.51654e-05
11 *64:9 *72:9 0
*RES
1 *419:io_oeb[5] *72:7 9.544 
2 *72:7 *72:9 179.608 
3 *72:9 *72:11 4.5 
4 *72:11 io_oeb[5] 455.156 
*END

*D_NET *73 0.11993
*CONN
*P io_oeb[6] O
*I *419:io_oeb[6] O *D control_system
*CAP
1 io_oeb[6] 0.0517419
2 *419:io_oeb[6] 0.00248007
3 *73:11 0.054222
4 *35:9 *73:11 0.0114861
*RES
1 *419:io_oeb[6] *73:11 43.268 
2 *73:11 io_oeb[6] 454.74 
*END

*D_NET *74 0.124012
*CONN
*P io_oeb[7] O
*I *419:io_oeb[7] O *D control_system
*CAP
1 io_oeb[7] 0.00118981
2 *419:io_oeb[7] 0.0513339
3 *74:9 0.00637114
4 *74:7 0.00518132
5 *74:5 0.0513339
6 *74:9 *76:9 0.00401068
7 *40:13 *74:9 0.00176492
8 *41:13 *74:9 0.00282676
*RES
1 *419:io_oeb[7] *74:5 450.788 
2 *74:5 *74:7 4.5 
3 *74:7 *74:9 51.272 
4 *74:9 io_oeb[7] 13.912 
*END

*D_NET *75 0.115859
*CONN
*P io_oeb[8] O
*I *419:io_oeb[8] O *D control_system
*CAP
1 io_oeb[8] 0.0572266
2 *419:io_oeb[8] 0.000595835
3 *75:7 0.0578225
4 *54:7 *75:7 0.000113246
5 *54:9 io_oeb[8] 0.000100744
*RES
1 *419:io_oeb[8] *75:7 9.752 
2 *75:7 io_oeb[8] 501.124 
*END

*D_NET *76 0.159926
*CONN
*P io_oeb[9] O
*I *419:io_oeb[9] O *D control_system
*CAP
1 io_oeb[9] 0.00122187
2 *419:io_oeb[9] 0.0512994
3 *76:9 0.0183517
4 *76:7 0.0171298
5 *76:5 0.0512994
6 *40:13 *76:9 0.00314709
7 *41:13 *76:9 0.0134656
8 *74:9 *76:9 0.00401068
*RES
1 *419:io_oeb[9] *76:5 450.58 
2 *76:5 *76:7 4.5 
3 *76:7 *76:9 157.352 
4 *76:9 io_oeb[9] 14.12 
*END

*D_NET *78 0.149395
*CONN
*P io_out[10] O
*I *419:salida[2] O *D control_system
*CAP
1 io_out[10] 0.0595475
2 *419:salida[2] 0.0151499
3 *78:7 0.0595475
4 *78:5 0.0151499
*RES
1 *419:salida[2] *78:5 127.972 
2 *78:5 *78:7 4.5 
3 *78:7 io_out[10] 521.092 
*END

*D_NET *79 0.242039
*CONN
*P io_out[11] O
*I *419:salida[3] O *D control_system
*CAP
1 io_out[11] 0.0518323
2 *419:salida[3] 0.000566749
3 *79:11 0.0518323
4 *79:9 0.0109128
5 *79:7 0.0114796
6 *79:9 *114:9 0.00773163
7 *419:dir *79:7 0.000131326
8 *42:9 *79:9 0.1032
9 *45:9 *79:9 0.000245167
10 *64:9 *79:9 0
11 *72:9 *79:9 0.00410688
*RES
1 *419:salida[3] *79:7 9.128 
2 *79:7 *79:9 261.352 
3 *79:9 *79:11 4.5 
4 *79:11 io_out[11] 455.572 
*END

*D_NET *112 0.144085
*CONN
*P io_out[7] O
*I *419:clk_s O *D control_system
*CAP
1 io_out[7] 0.0659213
2 *419:clk_s 0.00189007
3 *112:11 0.0678114
4 *112:11 *419:rst 8.81938e-05
5 *35:9 *112:11 0.00837427
*RES
1 *419:clk_s *112:11 35.364 
2 *112:11 io_out[7] 454.74 
*END

*D_NET *113 0.130195
*CONN